version 2
run EAR-P2PN-Nodes-100-0-20220603-23:13:42-9036
attr configname EAR-P2PN-Nodes-100
attr datetime 20220603-23:13:42
attr experiment EAR-P2PN-Nodes-100
attr inifile omnetpp.ini
attr iterationvars ""
attr iterationvars2 $repetition=0
attr measurement ""
attr network oversim.underlay.wirelessunderlay.WirelessUnderlayNetworkOLSR
attr processid 9036
attr repetition 0
attr replication #0
attr resultdir results
attr runnumber 0
attr seedset 0

scalar WirelessUnderlayNetworkOLSR.underlayConfigurator 	"Terminals added" 	100
scalar WirelessUnderlayNetworkOLSR.underlayConfigurator 	"Terminals removed" 	0
scalar WirelessUnderlayNetworkOLSR.overlayTerminal[0].udp 	droppedPkBadChecksum:count 	0
attr interpolationmode  none
attr title  "packets dropped (checksum error), count"
scalar WirelessUnderlayNetworkOLSR.overlayTerminal[0].udp 	droppedPkWrongPort:count 	0
attr interpolationmode  none
attr title  "packets dropped (wrong port), count"
scalar WirelessUnderlayNetworkOLSR.overlayTerminal[0].udp 	passedUpPk:count 	15
attr interpolationmode  none
attr title  "packets passed up, count"
scalar WirelessUnderlayNetworkOLSR.overlayTerminal[0].udp 	sentPk:count 	15
attr interpolationmode  none
attr source  sentPk
attr title  "packets sent, count"
scalar WirelessUnderlayNetworkOLSR.overlayTerminal[0].udp 	sentPk:sum(packetBytes) 	2490
attr interpolationmode  none
attr source  sentPk
attr title  "packets sent, sum(packetBytes)"
scalar WirelessUnderlayNetworkOLSR.overlayTerminal[0].udp 	rcvdPk:count 	15
attr interpolationmode  none
attr source  rcvdPk
attr title  "packets received, count"
scalar WirelessUnderlayNetworkOLSR.overlayTerminal[0].udp 	rcvdPk:sum(packetBytes) 	2490
attr interpolationmode  none
attr source  rcvdPk
attr title  "packets received, sum(packetBytes)"
scalar WirelessUnderlayNetworkOLSR.overlayTerminal[0].networkLayer.arp 	initiatedARPResolution:count 	0
attr title  "ARP initiated resolutions, count"
scalar WirelessUnderlayNetworkOLSR.overlayTerminal[0].networkLayer.arp 	sentReply:count 	0
attr title  "ARP replies sent, count"
scalar WirelessUnderlayNetworkOLSR.overlayTerminal[0].networkLayer.arp 	sentReq:count 	0
attr title  "ARP request sent, count"
scalar WirelessUnderlayNetworkOLSR.overlayTerminal[0].networkLayer.arp 	failedARPResolution:count 	0
attr title  "ARP failed resolutions, count"
scalar WirelessUnderlayNetworkOLSR.overlayTerminal[0].networkLayer.arp 	completedARPResolution:count 	0
attr title  "ARP completed resolutions, count"
statistic WirelessUnderlayNetworkOLSR.overlayTerminal[0].wlan[0].queue 	queueingTime:histogram
field count 0
field mean nan
field stddev nan
field sum 0
field sqrsum 0
field min nan
field max nan
attr interpolationmode  none
attr title  "queueing time, histogram"
bin	-INF	0
bin	-0.5	0
bin	-0.46666666666667	0
bin	-0.43333333333333	0
bin	-0.4	0
bin	-0.36666666666667	0
bin	-0.33333333333333	0
bin	-0.3	0
bin	-0.26666666666667	0
bin	-0.23333333333333	0
bin	-0.2	0
bin	-0.16666666666667	0
bin	-0.13333333333333	0
bin	-0.1	0
bin	-0.066666666666667	0
bin	-0.033333333333333	0
bin	-6.9388939039072e-018	0
bin	0.033333333333333	0
bin	0.066666666666667	0
bin	0.1	0
bin	0.13333333333333	0
bin	0.16666666666667	0
bin	0.2	0
bin	0.23333333333333	0
bin	0.26666666666667	0
bin	0.3	0
bin	0.33333333333333	0
bin	0.36666666666667	0
bin	0.4	0
bin	0.43333333333333	0
bin	0.46666666666667	0
bin	0.5	0
scalar WirelessUnderlayNetworkOLSR.overlayTerminal[0].wlan[0].queue 	dropPk:count 	0
attr interpolationmode  none
attr source  dropPkByQueue
attr title  "dropped packets, count"
scalar WirelessUnderlayNetworkOLSR.overlayTerminal[0].wlan[0].queue 	dropPk:sum(packetBytes) 	0
attr interpolationmode  none
attr source  dropPkByQueue
attr title  "dropped packets, sum(packetBytes)"
scalar WirelessUnderlayNetworkOLSR.overlayTerminal[0].wlan[0].queue 	queueLength:max 	0
attr interpolationmode  sample-hold
attr title  "queue length, max"
scalar WirelessUnderlayNetworkOLSR.overlayTerminal[0].wlan[0].queue 	queueLength:timeavg 	0
attr interpolationmode  sample-hold
attr title  "queue length, timeavg"
scalar WirelessUnderlayNetworkOLSR.overlayTerminal[0].wlan[0].queue 	rcvdPk:count 	0
attr interpolationmode  none
attr title  "received packets, count"
scalar WirelessUnderlayNetworkOLSR.overlayTerminal[0].wlan[0].queue 	rcvdPk:sum(packetBytes) 	0
attr interpolationmode  none
attr title  "received packets, sum(packetBytes)"
scalar WirelessUnderlayNetworkOLSR.overlayTerminal[0].wlan[0].mac 	droppedPkNotForUs:count 	0
attr interpolationmode  none
attr source  dropPkNotForUs
attr title  "packets dropped/not for us, count"
scalar WirelessUnderlayNetworkOLSR.overlayTerminal[0].wlan[0].mac 	droppedPkNotForUs:sum(packetBytes) 	0
attr interpolationmode  none
attr source  dropPkNotForUs
attr title  "packets dropped/not for us, sum(packetBytes)"
scalar WirelessUnderlayNetworkOLSR.overlayTerminal[0].wlan[0].mac 	rcvdPkFromHL:count 	0
attr interpolationmode  none
attr source  packetReceivedFromUpper
attr title  "packets received from higher layer, count"
scalar WirelessUnderlayNetworkOLSR.overlayTerminal[0].wlan[0].mac 	rcvdPkFromHL:sum(packetBytes) 	0
attr interpolationmode  none
attr source  packetReceivedFromUpper
attr title  "packets received from higher layer, sum(packetBytes)"
scalar WirelessUnderlayNetworkOLSR.overlayTerminal[0].wlan[0].mac 	passedUpPk:count 	0
attr interpolationmode  none
attr source  packetSentToUpper
attr title  "packets passed to higher layer, count"
scalar WirelessUnderlayNetworkOLSR.overlayTerminal[0].wlan[0].mac 	passedUpPk:sum(packetBytes) 	0
attr interpolationmode  none
attr source  packetSentToUpper
attr title  "packets passed to higher layer, sum(packetBytes)"
scalar WirelessUnderlayNetworkOLSR.overlayTerminal[0].wlan[0].mac 	rcvdPkFromLL:count 	0
attr interpolationmode  none
attr source  packetReceivedFromLower
attr title  "packets received from lower layer, count"
scalar WirelessUnderlayNetworkOLSR.overlayTerminal[0].wlan[0].mac 	rcvdPkFromLL:sum(packetBytes) 	0
attr interpolationmode  none
attr source  packetReceivedFromLower
attr title  "packets received from lower layer, sum(packetBytes)"
scalar WirelessUnderlayNetworkOLSR.overlayTerminal[0].wlan[0].mac 	sentDownPk:count 	0
attr interpolationmode  none
attr source  packetSentToLower
attr title  "packets sent to lower layer, count"
scalar WirelessUnderlayNetworkOLSR.overlayTerminal[0].wlan[0].mac 	sentDownPk:sum(packetBytes) 	0
attr interpolationmode  none
attr source  packetSentToLower
attr title  "packets sent to lower layer, sum(packetBytes)"
scalar WirelessUnderlayNetworkOLSR.overlayTerminal[0].loopbackInterface.lo 	rcvdPkFromHL:count 	15
attr interpolationmode  none
attr source  packetReceivedFromUpper
attr title  "packets received from higher layer, count"
scalar WirelessUnderlayNetworkOLSR.overlayTerminal[0].loopbackInterface.lo 	rcvdPkFromHL:sum(packetBytes) 	2790
attr interpolationmode  none
attr source  packetReceivedFromUpper
attr title  "packets received from higher layer, sum(packetBytes)"
scalar WirelessUnderlayNetworkOLSR.overlayTerminal[0].loopbackInterface.lo 	passedUpPk:count 	15
attr interpolationmode  none
attr source  packetSentToUpper
attr title  "packets passed to higher layer, count"
scalar WirelessUnderlayNetworkOLSR.overlayTerminal[0].loopbackInterface.lo 	passedUpPk:sum(packetBytes) 	2790
attr interpolationmode  none
attr source  packetSentToUpper
attr title  "packets passed to higher layer, sum(packetBytes)"
scalar WirelessUnderlayNetworkOLSR.overlayTerminal[0].loopbackInterface.lo 	droppedPkBitError:count 	0
attr interpolationmode  none
attr source  dropPkBitError
attr title  "packets dropped/bit error, count"
scalar WirelessUnderlayNetworkOLSR.overlayTerminal[0].loopbackInterface.lo 	droppedPkBitError:sum(packetBytes) 	0
attr interpolationmode  none
attr source  dropPkBitError
attr title  "packets dropped/bit error, sum(packetBytes)"
scalar WirelessUnderlayNetworkOLSR.overlayTerminal[0].manetrouting 	"simulated time" 	1000
scalar WirelessUnderlayNetworkOLSR.overlayTerminal[0].manetrouting 	"Aodv totalSend " 	0
scalar WirelessUnderlayNetworkOLSR.overlayTerminal[0].manetrouting 	"rreq send" 	0
scalar WirelessUnderlayNetworkOLSR.overlayTerminal[0].manetrouting 	"rreq rec" 	0
scalar WirelessUnderlayNetworkOLSR.overlayTerminal[0].manetrouting 	"rrep send" 	0
scalar WirelessUnderlayNetworkOLSR.overlayTerminal[0].manetrouting 	"rrep rec" 	0
scalar WirelessUnderlayNetworkOLSR.overlayTerminal[0].manetrouting 	"rrep ack send" 	0
scalar WirelessUnderlayNetworkOLSR.overlayTerminal[0].manetrouting 	"rrep ack rec" 	0
scalar WirelessUnderlayNetworkOLSR.overlayTerminal[0].manetrouting 	"rerr send" 	0
scalar WirelessUnderlayNetworkOLSR.overlayTerminal[0].manetrouting 	"rerr rec" 	0
scalar WirelessUnderlayNetworkOLSR.overlayTerminal[0].manetrouting 	"total repair" 	0
scalar WirelessUnderlayNetworkOLSR.overlayTerminal[1].udp 	droppedPkBadChecksum:count 	0
attr interpolationmode  none
attr title  "packets dropped (checksum error), count"
scalar WirelessUnderlayNetworkOLSR.overlayTerminal[1].udp 	droppedPkWrongPort:count 	0
attr interpolationmode  none
attr title  "packets dropped (wrong port), count"
scalar WirelessUnderlayNetworkOLSR.overlayTerminal[1].udp 	passedUpPk:count 	15
attr interpolationmode  none
attr title  "packets passed up, count"
scalar WirelessUnderlayNetworkOLSR.overlayTerminal[1].udp 	sentPk:count 	15
attr interpolationmode  none
attr source  sentPk
attr title  "packets sent, count"
scalar WirelessUnderlayNetworkOLSR.overlayTerminal[1].udp 	sentPk:sum(packetBytes) 	2490
attr interpolationmode  none
attr source  sentPk
attr title  "packets sent, sum(packetBytes)"
scalar WirelessUnderlayNetworkOLSR.overlayTerminal[1].udp 	rcvdPk:count 	15
attr interpolationmode  none
attr source  rcvdPk
attr title  "packets received, count"
scalar WirelessUnderlayNetworkOLSR.overlayTerminal[1].udp 	rcvdPk:sum(packetBytes) 	2490
attr interpolationmode  none
attr source  rcvdPk
attr title  "packets received, sum(packetBytes)"
scalar WirelessUnderlayNetworkOLSR.overlayTerminal[1].networkLayer.arp 	initiatedARPResolution:count 	0
attr title  "ARP initiated resolutions, count"
scalar WirelessUnderlayNetworkOLSR.overlayTerminal[1].networkLayer.arp 	sentReply:count 	0
attr title  "ARP replies sent, count"
scalar WirelessUnderlayNetworkOLSR.overlayTerminal[1].networkLayer.arp 	sentReq:count 	0
attr title  "ARP request sent, count"
scalar WirelessUnderlayNetworkOLSR.overlayTerminal[1].networkLayer.arp 	failedARPResolution:count 	0
attr title  "ARP failed resolutions, count"
scalar WirelessUnderlayNetworkOLSR.overlayTerminal[1].networkLayer.arp 	completedARPResolution:count 	0
attr title  "ARP completed resolutions, count"
statistic WirelessUnderlayNetworkOLSR.overlayTerminal[1].wlan[0].queue 	queueingTime:histogram
field count 0
field mean nan
field stddev nan
field sum 0
field sqrsum 0
field min nan
field max nan
attr interpolationmode  none
attr title  "queueing time, histogram"
bin	-INF	0
bin	-0.5	0
bin	-0.46666666666667	0
bin	-0.43333333333333	0
bin	-0.4	0
bin	-0.36666666666667	0
bin	-0.33333333333333	0
bin	-0.3	0
bin	-0.26666666666667	0
bin	-0.23333333333333	0
bin	-0.2	0
bin	-0.16666666666667	0
bin	-0.13333333333333	0
bin	-0.1	0
bin	-0.066666666666667	0
bin	-0.033333333333333	0
bin	-6.9388939039072e-018	0
bin	0.033333333333333	0
bin	0.066666666666667	0
bin	0.1	0
bin	0.13333333333333	0
bin	0.16666666666667	0
bin	0.2	0
bin	0.23333333333333	0
bin	0.26666666666667	0
bin	0.3	0
bin	0.33333333333333	0
bin	0.36666666666667	0
bin	0.4	0
bin	0.43333333333333	0
bin	0.46666666666667	0
bin	0.5	0
scalar WirelessUnderlayNetworkOLSR.overlayTerminal[1].wlan[0].queue 	dropPk:count 	0
attr interpolationmode  none
attr source  dropPkByQueue
attr title  "dropped packets, count"
scalar WirelessUnderlayNetworkOLSR.overlayTerminal[1].wlan[0].queue 	dropPk:sum(packetBytes) 	0
attr interpolationmode  none
attr source  dropPkByQueue
attr title  "dropped packets, sum(packetBytes)"
scalar WirelessUnderlayNetworkOLSR.overlayTerminal[1].wlan[0].queue 	queueLength:max 	0
attr interpolationmode  sample-hold
attr title  "queue length, max"
scalar WirelessUnderlayNetworkOLSR.overlayTerminal[1].wlan[0].queue 	queueLength:timeavg 	0
attr interpolationmode  sample-hold
attr title  "queue length, timeavg"
scalar WirelessUnderlayNetworkOLSR.overlayTerminal[1].wlan[0].queue 	rcvdPk:count 	0
attr interpolationmode  none
attr title  "received packets, count"
scalar WirelessUnderlayNetworkOLSR.overlayTerminal[1].wlan[0].queue 	rcvdPk:sum(packetBytes) 	0
attr interpolationmode  none
attr title  "received packets, sum(packetBytes)"
scalar WirelessUnderlayNetworkOLSR.overlayTerminal[1].wlan[0].mac 	droppedPkNotForUs:count 	0
attr interpolationmode  none
attr source  dropPkNotForUs
attr title  "packets dropped/not for us, count"
scalar WirelessUnderlayNetworkOLSR.overlayTerminal[1].wlan[0].mac 	droppedPkNotForUs:sum(packetBytes) 	0
attr interpolationmode  none
attr source  dropPkNotForUs
attr title  "packets dropped/not for us, sum(packetBytes)"
scalar WirelessUnderlayNetworkOLSR.overlayTerminal[1].wlan[0].mac 	rcvdPkFromHL:count 	0
attr interpolationmode  none
attr source  packetReceivedFromUpper
attr title  "packets received from higher layer, count"
scalar WirelessUnderlayNetworkOLSR.overlayTerminal[1].wlan[0].mac 	rcvdPkFromHL:sum(packetBytes) 	0
attr interpolationmode  none
attr source  packetReceivedFromUpper
attr title  "packets received from higher layer, sum(packetBytes)"
scalar WirelessUnderlayNetworkOLSR.overlayTerminal[1].wlan[0].mac 	passedUpPk:count 	0
attr interpolationmode  none
attr source  packetSentToUpper
attr title  "packets passed to higher layer, count"
scalar WirelessUnderlayNetworkOLSR.overlayTerminal[1].wlan[0].mac 	passedUpPk:sum(packetBytes) 	0
attr interpolationmode  none
attr source  packetSentToUpper
attr title  "packets passed to higher layer, sum(packetBytes)"
scalar WirelessUnderlayNetworkOLSR.overlayTerminal[1].wlan[0].mac 	rcvdPkFromLL:count 	0
attr interpolationmode  none
attr source  packetReceivedFromLower
attr title  "packets received from lower layer, count"
scalar WirelessUnderlayNetworkOLSR.overlayTerminal[1].wlan[0].mac 	rcvdPkFromLL:sum(packetBytes) 	0
attr interpolationmode  none
attr source  packetReceivedFromLower
attr title  "packets received from lower layer, sum(packetBytes)"
scalar WirelessUnderlayNetworkOLSR.overlayTerminal[1].wlan[0].mac 	sentDownPk:count 	0
attr interpolationmode  none
attr source  packetSentToLower
attr title  "packets sent to lower layer, count"
scalar WirelessUnderlayNetworkOLSR.overlayTerminal[1].wlan[0].mac 	sentDownPk:sum(packetBytes) 	0
attr interpolationmode  none
attr source  packetSentToLower
attr title  "packets sent to lower layer, sum(packetBytes)"
scalar WirelessUnderlayNetworkOLSR.overlayTerminal[1].loopbackInterface.lo 	rcvdPkFromHL:count 	15
attr interpolationmode  none
attr source  packetReceivedFromUpper
attr title  "packets received from higher layer, count"
scalar WirelessUnderlayNetworkOLSR.overlayTerminal[1].loopbackInterface.lo 	rcvdPkFromHL:sum(packetBytes) 	2790
attr interpolationmode  none
attr source  packetReceivedFromUpper
attr title  "packets received from higher layer, sum(packetBytes)"
scalar WirelessUnderlayNetworkOLSR.overlayTerminal[1].loopbackInterface.lo 	passedUpPk:count 	15
attr interpolationmode  none
attr source  packetSentToUpper
attr title  "packets passed to higher layer, count"
scalar WirelessUnderlayNetworkOLSR.overlayTerminal[1].loopbackInterface.lo 	passedUpPk:sum(packetBytes) 	2790
attr interpolationmode  none
attr source  packetSentToUpper
attr title  "packets passed to higher layer, sum(packetBytes)"
scalar WirelessUnderlayNetworkOLSR.overlayTerminal[1].loopbackInterface.lo 	droppedPkBitError:count 	0
attr interpolationmode  none
attr source  dropPkBitError
attr title  "packets dropped/bit error, count"
scalar WirelessUnderlayNetworkOLSR.overlayTerminal[1].loopbackInterface.lo 	droppedPkBitError:sum(packetBytes) 	0
attr interpolationmode  none
attr source  dropPkBitError
attr title  "packets dropped/bit error, sum(packetBytes)"
scalar WirelessUnderlayNetworkOLSR.overlayTerminal[2].udp 	droppedPkBadChecksum:count 	0
attr interpolationmode  none
attr title  "packets dropped (checksum error), count"
scalar WirelessUnderlayNetworkOLSR.overlayTerminal[2].udp 	droppedPkWrongPort:count 	0
attr interpolationmode  none
attr title  "packets dropped (wrong port), count"
scalar WirelessUnderlayNetworkOLSR.overlayTerminal[2].udp 	passedUpPk:count 	15
attr interpolationmode  none
attr title  "packets passed up, count"
scalar WirelessUnderlayNetworkOLSR.overlayTerminal[2].udp 	sentPk:count 	15
attr interpolationmode  none
attr source  sentPk
attr title  "packets sent, count"
scalar WirelessUnderlayNetworkOLSR.overlayTerminal[2].udp 	sentPk:sum(packetBytes) 	2490
attr interpolationmode  none
attr source  sentPk
attr title  "packets sent, sum(packetBytes)"
scalar WirelessUnderlayNetworkOLSR.overlayTerminal[2].udp 	rcvdPk:count 	15
attr interpolationmode  none
attr source  rcvdPk
attr title  "packets received, count"
scalar WirelessUnderlayNetworkOLSR.overlayTerminal[2].udp 	rcvdPk:sum(packetBytes) 	2490
attr interpolationmode  none
attr source  rcvdPk
attr title  "packets received, sum(packetBytes)"
scalar WirelessUnderlayNetworkOLSR.overlayTerminal[2].networkLayer.arp 	initiatedARPResolution:count 	0
attr title  "ARP initiated resolutions, count"
scalar WirelessUnderlayNetworkOLSR.overlayTerminal[2].networkLayer.arp 	sentReply:count 	0
attr title  "ARP replies sent, count"
scalar WirelessUnderlayNetworkOLSR.overlayTerminal[2].networkLayer.arp 	sentReq:count 	0
attr title  "ARP request sent, count"
scalar WirelessUnderlayNetworkOLSR.overlayTerminal[2].networkLayer.arp 	failedARPResolution:count 	0
attr title  "ARP failed resolutions, count"
scalar WirelessUnderlayNetworkOLSR.overlayTerminal[2].networkLayer.arp 	completedARPResolution:count 	0
attr title  "ARP completed resolutions, count"
statistic WirelessUnderlayNetworkOLSR.overlayTerminal[2].wlan[0].queue 	queueingTime:histogram
field count 0
field mean nan
field stddev nan
field sum 0
field sqrsum 0
field min nan
field max nan
attr interpolationmode  none
attr title  "queueing time, histogram"
bin	-INF	0
bin	-0.5	0
bin	-0.46666666666667	0
bin	-0.43333333333333	0
bin	-0.4	0
bin	-0.36666666666667	0
bin	-0.33333333333333	0
bin	-0.3	0
bin	-0.26666666666667	0
bin	-0.23333333333333	0
bin	-0.2	0
bin	-0.16666666666667	0
bin	-0.13333333333333	0
bin	-0.1	0
bin	-0.066666666666667	0
bin	-0.033333333333333	0
bin	-6.9388939039072e-018	0
bin	0.033333333333333	0
bin	0.066666666666667	0
bin	0.1	0
bin	0.13333333333333	0
bin	0.16666666666667	0
bin	0.2	0
bin	0.23333333333333	0
bin	0.26666666666667	0
bin	0.3	0
bin	0.33333333333333	0
bin	0.36666666666667	0
bin	0.4	0
bin	0.43333333333333	0
bin	0.46666666666667	0
bin	0.5	0
scalar WirelessUnderlayNetworkOLSR.overlayTerminal[2].wlan[0].queue 	dropPk:count 	0
attr interpolationmode  none
attr source  dropPkByQueue
attr title  "dropped packets, count"
scalar WirelessUnderlayNetworkOLSR.overlayTerminal[2].wlan[0].queue 	dropPk:sum(packetBytes) 	0
attr interpolationmode  none
attr source  dropPkByQueue
attr title  "dropped packets, sum(packetBytes)"
scalar WirelessUnderlayNetworkOLSR.overlayTerminal[2].wlan[0].queue 	queueLength:max 	0
attr interpolationmode  sample-hold
attr title  "queue length, max"
scalar WirelessUnderlayNetworkOLSR.overlayTerminal[2].wlan[0].queue 	queueLength:timeavg 	0
attr interpolationmode  sample-hold
attr title  "queue length, timeavg"
scalar WirelessUnderlayNetworkOLSR.overlayTerminal[2].wlan[0].queue 	rcvdPk:count 	0
attr interpolationmode  none
attr title  "received packets, count"
scalar WirelessUnderlayNetworkOLSR.overlayTerminal[2].wlan[0].queue 	rcvdPk:sum(packetBytes) 	0
attr interpolationmode  none
attr title  "received packets, sum(packetBytes)"
scalar WirelessUnderlayNetworkOLSR.overlayTerminal[2].wlan[0].mac 	droppedPkNotForUs:count 	0
attr interpolationmode  none
attr source  dropPkNotForUs
attr title  "packets dropped/not for us, count"
scalar WirelessUnderlayNetworkOLSR.overlayTerminal[2].wlan[0].mac 	droppedPkNotForUs:sum(packetBytes) 	0
attr interpolationmode  none
attr source  dropPkNotForUs
attr title  "packets dropped/not for us, sum(packetBytes)"
scalar WirelessUnderlayNetworkOLSR.overlayTerminal[2].wlan[0].mac 	rcvdPkFromHL:count 	0
attr interpolationmode  none
attr source  packetReceivedFromUpper
attr title  "packets received from higher layer, count"
scalar WirelessUnderlayNetworkOLSR.overlayTerminal[2].wlan[0].mac 	rcvdPkFromHL:sum(packetBytes) 	0
attr interpolationmode  none
attr source  packetReceivedFromUpper
attr title  "packets received from higher layer, sum(packetBytes)"
scalar WirelessUnderlayNetworkOLSR.overlayTerminal[2].wlan[0].mac 	passedUpPk:count 	0
attr interpolationmode  none
attr source  packetSentToUpper
attr title  "packets passed to higher layer, count"
scalar WirelessUnderlayNetworkOLSR.overlayTerminal[2].wlan[0].mac 	passedUpPk:sum(packetBytes) 	0
attr interpolationmode  none
attr source  packetSentToUpper
attr title  "packets passed to higher layer, sum(packetBytes)"
scalar WirelessUnderlayNetworkOLSR.overlayTerminal[2].wlan[0].mac 	rcvdPkFromLL:count 	0
attr interpolationmode  none
attr source  packetReceivedFromLower
attr title  "packets received from lower layer, count"
scalar WirelessUnderlayNetworkOLSR.overlayTerminal[2].wlan[0].mac 	rcvdPkFromLL:sum(packetBytes) 	0
attr interpolationmode  none
attr source  packetReceivedFromLower
attr title  "packets received from lower layer, sum(packetBytes)"
scalar WirelessUnderlayNetworkOLSR.overlayTerminal[2].wlan[0].mac 	sentDownPk:count 	0
attr interpolationmode  none
attr source  packetSentToLower
attr title  "packets sent to lower layer, count"
scalar WirelessUnderlayNetworkOLSR.overlayTerminal[2].wlan[0].mac 	sentDownPk:sum(packetBytes) 	0
attr interpolationmode  none
attr source  packetSentToLower
attr title  "packets sent to lower layer, sum(packetBytes)"
scalar WirelessUnderlayNetworkOLSR.overlayTerminal[2].loopbackInterface.lo 	rcvdPkFromHL:count 	15
attr interpolationmode  none
attr source  packetReceivedFromUpper
attr title  "packets received from higher layer, count"
scalar WirelessUnderlayNetworkOLSR.overlayTerminal[2].loopbackInterface.lo 	rcvdPkFromHL:sum(packetBytes) 	2790
attr interpolationmode  none
attr source  packetReceivedFromUpper
attr title  "packets received from higher layer, sum(packetBytes)"
scalar WirelessUnderlayNetworkOLSR.overlayTerminal[2].loopbackInterface.lo 	passedUpPk:count 	15
attr interpolationmode  none
attr source  packetSentToUpper
attr title  "packets passed to higher layer, count"
scalar WirelessUnderlayNetworkOLSR.overlayTerminal[2].loopbackInterface.lo 	passedUpPk:sum(packetBytes) 	2790
attr interpolationmode  none
attr source  packetSentToUpper
attr title  "packets passed to higher layer, sum(packetBytes)"
scalar WirelessUnderlayNetworkOLSR.overlayTerminal[2].loopbackInterface.lo 	droppedPkBitError:count 	0
attr interpolationmode  none
attr source  dropPkBitError
attr title  "packets dropped/bit error, count"
scalar WirelessUnderlayNetworkOLSR.overlayTerminal[2].loopbackInterface.lo 	droppedPkBitError:sum(packetBytes) 	0
attr interpolationmode  none
attr source  dropPkBitError
attr title  "packets dropped/bit error, sum(packetBytes)"
scalar WirelessUnderlayNetworkOLSR.overlayTerminal[3].udp 	droppedPkBadChecksum:count 	0
attr interpolationmode  none
attr title  "packets dropped (checksum error), count"
scalar WirelessUnderlayNetworkOLSR.overlayTerminal[3].udp 	droppedPkWrongPort:count 	0
attr interpolationmode  none
attr title  "packets dropped (wrong port), count"
scalar WirelessUnderlayNetworkOLSR.overlayTerminal[3].udp 	passedUpPk:count 	15
attr interpolationmode  none
attr title  "packets passed up, count"
scalar WirelessUnderlayNetworkOLSR.overlayTerminal[3].udp 	sentPk:count 	15
attr interpolationmode  none
attr source  sentPk
attr title  "packets sent, count"
scalar WirelessUnderlayNetworkOLSR.overlayTerminal[3].udp 	sentPk:sum(packetBytes) 	2490
attr interpolationmode  none
attr source  sentPk
attr title  "packets sent, sum(packetBytes)"
scalar WirelessUnderlayNetworkOLSR.overlayTerminal[3].udp 	rcvdPk:count 	15
attr interpolationmode  none
attr source  rcvdPk
attr title  "packets received, count"
scalar WirelessUnderlayNetworkOLSR.overlayTerminal[3].udp 	rcvdPk:sum(packetBytes) 	2490
attr interpolationmode  none
attr source  rcvdPk
attr title  "packets received, sum(packetBytes)"
scalar WirelessUnderlayNetworkOLSR.overlayTerminal[3].networkLayer.arp 	initiatedARPResolution:count 	0
attr title  "ARP initiated resolutions, count"
scalar WirelessUnderlayNetworkOLSR.overlayTerminal[3].networkLayer.arp 	sentReply:count 	0
attr title  "ARP replies sent, count"
scalar WirelessUnderlayNetworkOLSR.overlayTerminal[3].networkLayer.arp 	sentReq:count 	0
attr title  "ARP request sent, count"
scalar WirelessUnderlayNetworkOLSR.overlayTerminal[3].networkLayer.arp 	failedARPResolution:count 	0
attr title  "ARP failed resolutions, count"
scalar WirelessUnderlayNetworkOLSR.overlayTerminal[3].networkLayer.arp 	completedARPResolution:count 	0
attr title  "ARP completed resolutions, count"
statistic WirelessUnderlayNetworkOLSR.overlayTerminal[3].wlan[0].queue 	queueingTime:histogram
field count 0
field mean nan
field stddev nan
field sum 0
field sqrsum 0
field min nan
field max nan
attr interpolationmode  none
attr title  "queueing time, histogram"
bin	-INF	0
bin	-0.5	0
bin	-0.46666666666667	0
bin	-0.43333333333333	0
bin	-0.4	0
bin	-0.36666666666667	0
bin	-0.33333333333333	0
bin	-0.3	0
bin	-0.26666666666667	0
bin	-0.23333333333333	0
bin	-0.2	0
bin	-0.16666666666667	0
bin	-0.13333333333333	0
bin	-0.1	0
bin	-0.066666666666667	0
bin	-0.033333333333333	0
bin	-6.9388939039072e-018	0
bin	0.033333333333333	0
bin	0.066666666666667	0
bin	0.1	0
bin	0.13333333333333	0
bin	0.16666666666667	0
bin	0.2	0
bin	0.23333333333333	0
bin	0.26666666666667	0
bin	0.3	0
bin	0.33333333333333	0
bin	0.36666666666667	0
bin	0.4	0
bin	0.43333333333333	0
bin	0.46666666666667	0
bin	0.5	0
scalar WirelessUnderlayNetworkOLSR.overlayTerminal[3].wlan[0].queue 	dropPk:count 	0
attr interpolationmode  none
attr source  dropPkByQueue
attr title  "dropped packets, count"
scalar WirelessUnderlayNetworkOLSR.overlayTerminal[3].wlan[0].queue 	dropPk:sum(packetBytes) 	0
attr interpolationmode  none
attr source  dropPkByQueue
attr title  "dropped packets, sum(packetBytes)"
scalar WirelessUnderlayNetworkOLSR.overlayTerminal[3].wlan[0].queue 	queueLength:max 	0
attr interpolationmode  sample-hold
attr title  "queue length, max"
scalar WirelessUnderlayNetworkOLSR.overlayTerminal[3].wlan[0].queue 	queueLength:timeavg 	0
attr interpolationmode  sample-hold
attr title  "queue length, timeavg"
scalar WirelessUnderlayNetworkOLSR.overlayTerminal[3].wlan[0].queue 	rcvdPk:count 	0
attr interpolationmode  none
attr title  "received packets, count"
scalar WirelessUnderlayNetworkOLSR.overlayTerminal[3].wlan[0].queue 	rcvdPk:sum(packetBytes) 	0
attr interpolationmode  none
attr title  "received packets, sum(packetBytes)"
scalar WirelessUnderlayNetworkOLSR.overlayTerminal[3].wlan[0].mac 	droppedPkNotForUs:count 	0
attr interpolationmode  none
attr source  dropPkNotForUs
attr title  "packets dropped/not for us, count"
scalar WirelessUnderlayNetworkOLSR.overlayTerminal[3].wlan[0].mac 	droppedPkNotForUs:sum(packetBytes) 	0
attr interpolationmode  none
attr source  dropPkNotForUs
attr title  "packets dropped/not for us, sum(packetBytes)"
scalar WirelessUnderlayNetworkOLSR.overlayTerminal[3].wlan[0].mac 	rcvdPkFromHL:count 	0
attr interpolationmode  none
attr source  packetReceivedFromUpper
attr title  "packets received from higher layer, count"
scalar WirelessUnderlayNetworkOLSR.overlayTerminal[3].wlan[0].mac 	rcvdPkFromHL:sum(packetBytes) 	0
attr interpolationmode  none
attr source  packetReceivedFromUpper
attr title  "packets received from higher layer, sum(packetBytes)"
scalar WirelessUnderlayNetworkOLSR.overlayTerminal[3].wlan[0].mac 	passedUpPk:count 	0
attr interpolationmode  none
attr source  packetSentToUpper
attr title  "packets passed to higher layer, count"
scalar WirelessUnderlayNetworkOLSR.overlayTerminal[3].wlan[0].mac 	passedUpPk:sum(packetBytes) 	0
attr interpolationmode  none
attr source  packetSentToUpper
attr title  "packets passed to higher layer, sum(packetBytes)"
scalar WirelessUnderlayNetworkOLSR.overlayTerminal[3].wlan[0].mac 	rcvdPkFromLL:count 	0
attr interpolationmode  none
attr source  packetReceivedFromLower
attr title  "packets received from lower layer, count"
scalar WirelessUnderlayNetworkOLSR.overlayTerminal[3].wlan[0].mac 	rcvdPkFromLL:sum(packetBytes) 	0
attr interpolationmode  none
attr source  packetReceivedFromLower
attr title  "packets received from lower layer, sum(packetBytes)"
scalar WirelessUnderlayNetworkOLSR.overlayTerminal[3].wlan[0].mac 	sentDownPk:count 	0
attr interpolationmode  none
attr source  packetSentToLower
attr title  "packets sent to lower layer, count"
scalar WirelessUnderlayNetworkOLSR.overlayTerminal[3].wlan[0].mac 	sentDownPk:sum(packetBytes) 	0
attr interpolationmode  none
attr source  packetSentToLower
attr title  "packets sent to lower layer, sum(packetBytes)"
scalar WirelessUnderlayNetworkOLSR.overlayTerminal[3].loopbackInterface.lo 	rcvdPkFromHL:count 	15
attr interpolationmode  none
attr source  packetReceivedFromUpper
attr title  "packets received from higher layer, count"
scalar WirelessUnderlayNetworkOLSR.overlayTerminal[3].loopbackInterface.lo 	rcvdPkFromHL:sum(packetBytes) 	2790
attr interpolationmode  none
attr source  packetReceivedFromUpper
attr title  "packets received from higher layer, sum(packetBytes)"
scalar WirelessUnderlayNetworkOLSR.overlayTerminal[3].loopbackInterface.lo 	passedUpPk:count 	15
attr interpolationmode  none
attr source  packetSentToUpper
attr title  "packets passed to higher layer, count"
scalar WirelessUnderlayNetworkOLSR.overlayTerminal[3].loopbackInterface.lo 	passedUpPk:sum(packetBytes) 	2790
attr interpolationmode  none
attr source  packetSentToUpper
attr title  "packets passed to higher layer, sum(packetBytes)"
scalar WirelessUnderlayNetworkOLSR.overlayTerminal[3].loopbackInterface.lo 	droppedPkBitError:count 	0
attr interpolationmode  none
attr source  dropPkBitError
attr title  "packets dropped/bit error, count"
scalar WirelessUnderlayNetworkOLSR.overlayTerminal[3].loopbackInterface.lo 	droppedPkBitError:sum(packetBytes) 	0
attr interpolationmode  none
attr source  dropPkBitError
attr title  "packets dropped/bit error, sum(packetBytes)"
scalar WirelessUnderlayNetworkOLSR.overlayTerminal[4].udp 	droppedPkBadChecksum:count 	0
attr interpolationmode  none
attr title  "packets dropped (checksum error), count"
scalar WirelessUnderlayNetworkOLSR.overlayTerminal[4].udp 	droppedPkWrongPort:count 	0
attr interpolationmode  none
attr title  "packets dropped (wrong port), count"
scalar WirelessUnderlayNetworkOLSR.overlayTerminal[4].udp 	passedUpPk:count 	15
attr interpolationmode  none
attr title  "packets passed up, count"
scalar WirelessUnderlayNetworkOLSR.overlayTerminal[4].udp 	sentPk:count 	15
attr interpolationmode  none
attr source  sentPk
attr title  "packets sent, count"
scalar WirelessUnderlayNetworkOLSR.overlayTerminal[4].udp 	sentPk:sum(packetBytes) 	2490
attr interpolationmode  none
attr source  sentPk
attr title  "packets sent, sum(packetBytes)"
scalar WirelessUnderlayNetworkOLSR.overlayTerminal[4].udp 	rcvdPk:count 	15
attr interpolationmode  none
attr source  rcvdPk
attr title  "packets received, count"
scalar WirelessUnderlayNetworkOLSR.overlayTerminal[4].udp 	rcvdPk:sum(packetBytes) 	2490
attr interpolationmode  none
attr source  rcvdPk
attr title  "packets received, sum(packetBytes)"
scalar WirelessUnderlayNetworkOLSR.overlayTerminal[4].networkLayer.arp 	initiatedARPResolution:count 	0
attr title  "ARP initiated resolutions, count"
scalar WirelessUnderlayNetworkOLSR.overlayTerminal[4].networkLayer.arp 	sentReply:count 	0
attr title  "ARP replies sent, count"
scalar WirelessUnderlayNetworkOLSR.overlayTerminal[4].networkLayer.arp 	sentReq:count 	0
attr title  "ARP request sent, count"
scalar WirelessUnderlayNetworkOLSR.overlayTerminal[4].networkLayer.arp 	failedARPResolution:count 	0
attr title  "ARP failed resolutions, count"
scalar WirelessUnderlayNetworkOLSR.overlayTerminal[4].networkLayer.arp 	completedARPResolution:count 	0
attr title  "ARP completed resolutions, count"
statistic WirelessUnderlayNetworkOLSR.overlayTerminal[4].wlan[0].queue 	queueingTime:histogram
field count 0
field mean nan
field stddev nan
field sum 0
field sqrsum 0
field min nan
field max nan
attr interpolationmode  none
attr title  "queueing time, histogram"
bin	-INF	0
bin	-0.5	0
bin	-0.46666666666667	0
bin	-0.43333333333333	0
bin	-0.4	0
bin	-0.36666666666667	0
bin	-0.33333333333333	0
bin	-0.3	0
bin	-0.26666666666667	0
bin	-0.23333333333333	0
bin	-0.2	0
bin	-0.16666666666667	0
bin	-0.13333333333333	0
bin	-0.1	0
bin	-0.066666666666667	0
bin	-0.033333333333333	0
bin	-6.9388939039072e-018	0
bin	0.033333333333333	0
bin	0.066666666666667	0
bin	0.1	0
bin	0.13333333333333	0
bin	0.16666666666667	0
bin	0.2	0
bin	0.23333333333333	0
bin	0.26666666666667	0
bin	0.3	0
bin	0.33333333333333	0
bin	0.36666666666667	0
bin	0.4	0
bin	0.43333333333333	0
bin	0.46666666666667	0
bin	0.5	0
scalar WirelessUnderlayNetworkOLSR.overlayTerminal[4].wlan[0].queue 	dropPk:count 	0
attr interpolationmode  none
attr source  dropPkByQueue
attr title  "dropped packets, count"
scalar WirelessUnderlayNetworkOLSR.overlayTerminal[4].wlan[0].queue 	dropPk:sum(packetBytes) 	0
attr interpolationmode  none
attr source  dropPkByQueue
attr title  "dropped packets, sum(packetBytes)"
scalar WirelessUnderlayNetworkOLSR.overlayTerminal[4].wlan[0].queue 	queueLength:max 	0
attr interpolationmode  sample-hold
attr title  "queue length, max"
scalar WirelessUnderlayNetworkOLSR.overlayTerminal[4].wlan[0].queue 	queueLength:timeavg 	0
attr interpolationmode  sample-hold
attr title  "queue length, timeavg"
scalar WirelessUnderlayNetworkOLSR.overlayTerminal[4].wlan[0].queue 	rcvdPk:count 	0
attr interpolationmode  none
attr title  "received packets, count"
scalar WirelessUnderlayNetworkOLSR.overlayTerminal[4].wlan[0].queue 	rcvdPk:sum(packetBytes) 	0
attr interpolationmode  none
attr title  "received packets, sum(packetBytes)"
scalar WirelessUnderlayNetworkOLSR.overlayTerminal[4].wlan[0].mac 	droppedPkNotForUs:count 	0
attr interpolationmode  none
attr source  dropPkNotForUs
attr title  "packets dropped/not for us, count"
scalar WirelessUnderlayNetworkOLSR.overlayTerminal[4].wlan[0].mac 	droppedPkNotForUs:sum(packetBytes) 	0
attr interpolationmode  none
attr source  dropPkNotForUs
attr title  "packets dropped/not for us, sum(packetBytes)"
scalar WirelessUnderlayNetworkOLSR.overlayTerminal[4].wlan[0].mac 	rcvdPkFromHL:count 	0
attr interpolationmode  none
attr source  packetReceivedFromUpper
attr title  "packets received from higher layer, count"
scalar WirelessUnderlayNetworkOLSR.overlayTerminal[4].wlan[0].mac 	rcvdPkFromHL:sum(packetBytes) 	0
attr interpolationmode  none
attr source  packetReceivedFromUpper
attr title  "packets received from higher layer, sum(packetBytes)"
scalar WirelessUnderlayNetworkOLSR.overlayTerminal[4].wlan[0].mac 	passedUpPk:count 	0
attr interpolationmode  none
attr source  packetSentToUpper
attr title  "packets passed to higher layer, count"
scalar WirelessUnderlayNetworkOLSR.overlayTerminal[4].wlan[0].mac 	passedUpPk:sum(packetBytes) 	0
attr interpolationmode  none
attr source  packetSentToUpper
attr title  "packets passed to higher layer, sum(packetBytes)"
scalar WirelessUnderlayNetworkOLSR.overlayTerminal[4].wlan[0].mac 	rcvdPkFromLL:count 	0
attr interpolationmode  none
attr source  packetReceivedFromLower
attr title  "packets received from lower layer, count"
scalar WirelessUnderlayNetworkOLSR.overlayTerminal[4].wlan[0].mac 	rcvdPkFromLL:sum(packetBytes) 	0
attr interpolationmode  none
attr source  packetReceivedFromLower
attr title  "packets received from lower layer, sum(packetBytes)"
scalar WirelessUnderlayNetworkOLSR.overlayTerminal[4].wlan[0].mac 	sentDownPk:count 	0
attr interpolationmode  none
attr source  packetSentToLower
attr title  "packets sent to lower layer, count"
scalar WirelessUnderlayNetworkOLSR.overlayTerminal[4].wlan[0].mac 	sentDownPk:sum(packetBytes) 	0
attr interpolationmode  none
attr source  packetSentToLower
attr title  "packets sent to lower layer, sum(packetBytes)"
scalar WirelessUnderlayNetworkOLSR.overlayTerminal[4].loopbackInterface.lo 	rcvdPkFromHL:count 	15
attr interpolationmode  none
attr source  packetReceivedFromUpper
attr title  "packets received from higher layer, count"
scalar WirelessUnderlayNetworkOLSR.overlayTerminal[4].loopbackInterface.lo 	rcvdPkFromHL:sum(packetBytes) 	2790
attr interpolationmode  none
attr source  packetReceivedFromUpper
attr title  "packets received from higher layer, sum(packetBytes)"
scalar WirelessUnderlayNetworkOLSR.overlayTerminal[4].loopbackInterface.lo 	passedUpPk:count 	15
attr interpolationmode  none
attr source  packetSentToUpper
attr title  "packets passed to higher layer, count"
scalar WirelessUnderlayNetworkOLSR.overlayTerminal[4].loopbackInterface.lo 	passedUpPk:sum(packetBytes) 	2790
attr interpolationmode  none
attr source  packetSentToUpper
attr title  "packets passed to higher layer, sum(packetBytes)"
scalar WirelessUnderlayNetworkOLSR.overlayTerminal[4].loopbackInterface.lo 	droppedPkBitError:count 	0
attr interpolationmode  none
attr source  dropPkBitError
attr title  "packets dropped/bit error, count"
scalar WirelessUnderlayNetworkOLSR.overlayTerminal[4].loopbackInterface.lo 	droppedPkBitError:sum(packetBytes) 	0
attr interpolationmode  none
attr source  dropPkBitError
attr title  "packets dropped/bit error, sum(packetBytes)"
scalar WirelessUnderlayNetworkOLSR.overlayTerminal[5].udp 	droppedPkBadChecksum:count 	0
attr interpolationmode  none
attr title  "packets dropped (checksum error), count"
scalar WirelessUnderlayNetworkOLSR.overlayTerminal[5].udp 	droppedPkWrongPort:count 	0
attr interpolationmode  none
attr title  "packets dropped (wrong port), count"
scalar WirelessUnderlayNetworkOLSR.overlayTerminal[5].udp 	passedUpPk:count 	15
attr interpolationmode  none
attr title  "packets passed up, count"
scalar WirelessUnderlayNetworkOLSR.overlayTerminal[5].udp 	sentPk:count 	15
attr interpolationmode  none
attr source  sentPk
attr title  "packets sent, count"
scalar WirelessUnderlayNetworkOLSR.overlayTerminal[5].udp 	sentPk:sum(packetBytes) 	2490
attr interpolationmode  none
attr source  sentPk
attr title  "packets sent, sum(packetBytes)"
scalar WirelessUnderlayNetworkOLSR.overlayTerminal[5].udp 	rcvdPk:count 	15
attr interpolationmode  none
attr source  rcvdPk
attr title  "packets received, count"
scalar WirelessUnderlayNetworkOLSR.overlayTerminal[5].udp 	rcvdPk:sum(packetBytes) 	2490
attr interpolationmode  none
attr source  rcvdPk
attr title  "packets received, sum(packetBytes)"
scalar WirelessUnderlayNetworkOLSR.overlayTerminal[5].networkLayer.arp 	initiatedARPResolution:count 	0
attr title  "ARP initiated resolutions, count"
scalar WirelessUnderlayNetworkOLSR.overlayTerminal[5].networkLayer.arp 	sentReply:count 	0
attr title  "ARP replies sent, count"
scalar WirelessUnderlayNetworkOLSR.overlayTerminal[5].networkLayer.arp 	sentReq:count 	0
attr title  "ARP request sent, count"
scalar WirelessUnderlayNetworkOLSR.overlayTerminal[5].networkLayer.arp 	failedARPResolution:count 	0
attr title  "ARP failed resolutions, count"
scalar WirelessUnderlayNetworkOLSR.overlayTerminal[5].networkLayer.arp 	completedARPResolution:count 	0
attr title  "ARP completed resolutions, count"
statistic WirelessUnderlayNetworkOLSR.overlayTerminal[5].wlan[0].queue 	queueingTime:histogram
field count 0
field mean nan
field stddev nan
field sum 0
field sqrsum 0
field min nan
field max nan
attr interpolationmode  none
attr title  "queueing time, histogram"
bin	-INF	0
bin	-0.5	0
bin	-0.46666666666667	0
bin	-0.43333333333333	0
bin	-0.4	0
bin	-0.36666666666667	0
bin	-0.33333333333333	0
bin	-0.3	0
bin	-0.26666666666667	0
bin	-0.23333333333333	0
bin	-0.2	0
bin	-0.16666666666667	0
bin	-0.13333333333333	0
bin	-0.1	0
bin	-0.066666666666667	0
bin	-0.033333333333333	0
bin	-6.9388939039072e-018	0
bin	0.033333333333333	0
bin	0.066666666666667	0
bin	0.1	0
bin	0.13333333333333	0
bin	0.16666666666667	0
bin	0.2	0
bin	0.23333333333333	0
bin	0.26666666666667	0
bin	0.3	0
bin	0.33333333333333	0
bin	0.36666666666667	0
bin	0.4	0
bin	0.43333333333333	0
bin	0.46666666666667	0
bin	0.5	0
scalar WirelessUnderlayNetworkOLSR.overlayTerminal[5].wlan[0].queue 	dropPk:count 	0
attr interpolationmode  none
attr source  dropPkByQueue
attr title  "dropped packets, count"
scalar WirelessUnderlayNetworkOLSR.overlayTerminal[5].wlan[0].queue 	dropPk:sum(packetBytes) 	0
attr interpolationmode  none
attr source  dropPkByQueue
attr title  "dropped packets, sum(packetBytes)"
scalar WirelessUnderlayNetworkOLSR.overlayTerminal[5].wlan[0].queue 	queueLength:max 	0
attr interpolationmode  sample-hold
attr title  "queue length, max"
scalar WirelessUnderlayNetworkOLSR.overlayTerminal[5].wlan[0].queue 	queueLength:timeavg 	0
attr interpolationmode  sample-hold
attr title  "queue length, timeavg"
scalar WirelessUnderlayNetworkOLSR.overlayTerminal[5].wlan[0].queue 	rcvdPk:count 	0
attr interpolationmode  none
attr title  "received packets, count"
scalar WirelessUnderlayNetworkOLSR.overlayTerminal[5].wlan[0].queue 	rcvdPk:sum(packetBytes) 	0
attr interpolationmode  none
attr title  "received packets, sum(packetBytes)"
scalar WirelessUnderlayNetworkOLSR.overlayTerminal[5].wlan[0].mac 	droppedPkNotForUs:count 	0
attr interpolationmode  none
attr source  dropPkNotForUs
attr title  "packets dropped/not for us, count"
scalar WirelessUnderlayNetworkOLSR.overlayTerminal[5].wlan[0].mac 	droppedPkNotForUs:sum(packetBytes) 	0
attr interpolationmode  none
attr source  dropPkNotForUs
attr title  "packets dropped/not for us, sum(packetBytes)"
scalar WirelessUnderlayNetworkOLSR.overlayTerminal[5].wlan[0].mac 	rcvdPkFromHL:count 	0
attr interpolationmode  none
attr source  packetReceivedFromUpper
attr title  "packets received from higher layer, count"
scalar WirelessUnderlayNetworkOLSR.overlayTerminal[5].wlan[0].mac 	rcvdPkFromHL:sum(packetBytes) 	0
attr interpolationmode  none
attr source  packetReceivedFromUpper
attr title  "packets received from higher layer, sum(packetBytes)"
scalar WirelessUnderlayNetworkOLSR.overlayTerminal[5].wlan[0].mac 	passedUpPk:count 	0
attr interpolationmode  none
attr source  packetSentToUpper
attr title  "packets passed to higher layer, count"
scalar WirelessUnderlayNetworkOLSR.overlayTerminal[5].wlan[0].mac 	passedUpPk:sum(packetBytes) 	0
attr interpolationmode  none
attr source  packetSentToUpper
attr title  "packets passed to higher layer, sum(packetBytes)"
scalar WirelessUnderlayNetworkOLSR.overlayTerminal[5].wlan[0].mac 	rcvdPkFromLL:count 	0
attr interpolationmode  none
attr source  packetReceivedFromLower
attr title  "packets received from lower layer, count"
scalar WirelessUnderlayNetworkOLSR.overlayTerminal[5].wlan[0].mac 	rcvdPkFromLL:sum(packetBytes) 	0
attr interpolationmode  none
attr source  packetReceivedFromLower
attr title  "packets received from lower layer, sum(packetBytes)"
scalar WirelessUnderlayNetworkOLSR.overlayTerminal[5].wlan[0].mac 	sentDownPk:count 	0
attr interpolationmode  none
attr source  packetSentToLower
attr title  "packets sent to lower layer, count"
scalar WirelessUnderlayNetworkOLSR.overlayTerminal[5].wlan[0].mac 	sentDownPk:sum(packetBytes) 	0
attr interpolationmode  none
attr source  packetSentToLower
attr title  "packets sent to lower layer, sum(packetBytes)"
scalar WirelessUnderlayNetworkOLSR.overlayTerminal[5].loopbackInterface.lo 	rcvdPkFromHL:count 	15
attr interpolationmode  none
attr source  packetReceivedFromUpper
attr title  "packets received from higher layer, count"
scalar WirelessUnderlayNetworkOLSR.overlayTerminal[5].loopbackInterface.lo 	rcvdPkFromHL:sum(packetBytes) 	2790
attr interpolationmode  none
attr source  packetReceivedFromUpper
attr title  "packets received from higher layer, sum(packetBytes)"
scalar WirelessUnderlayNetworkOLSR.overlayTerminal[5].loopbackInterface.lo 	passedUpPk:count 	15
attr interpolationmode  none
attr source  packetSentToUpper
attr title  "packets passed to higher layer, count"
scalar WirelessUnderlayNetworkOLSR.overlayTerminal[5].loopbackInterface.lo 	passedUpPk:sum(packetBytes) 	2790
attr interpolationmode  none
attr source  packetSentToUpper
attr title  "packets passed to higher layer, sum(packetBytes)"
scalar WirelessUnderlayNetworkOLSR.overlayTerminal[5].loopbackInterface.lo 	droppedPkBitError:count 	0
attr interpolationmode  none
attr source  dropPkBitError
attr title  "packets dropped/bit error, count"
scalar WirelessUnderlayNetworkOLSR.overlayTerminal[5].loopbackInterface.lo 	droppedPkBitError:sum(packetBytes) 	0
attr interpolationmode  none
attr source  dropPkBitError
attr title  "packets dropped/bit error, sum(packetBytes)"
scalar WirelessUnderlayNetworkOLSR.overlayTerminal[6].udp 	droppedPkBadChecksum:count 	0
attr interpolationmode  none
attr title  "packets dropped (checksum error), count"
scalar WirelessUnderlayNetworkOLSR.overlayTerminal[6].udp 	droppedPkWrongPort:count 	0
attr interpolationmode  none
attr title  "packets dropped (wrong port), count"
scalar WirelessUnderlayNetworkOLSR.overlayTerminal[6].udp 	passedUpPk:count 	15
attr interpolationmode  none
attr title  "packets passed up, count"
scalar WirelessUnderlayNetworkOLSR.overlayTerminal[6].udp 	sentPk:count 	15
attr interpolationmode  none
attr source  sentPk
attr title  "packets sent, count"
scalar WirelessUnderlayNetworkOLSR.overlayTerminal[6].udp 	sentPk:sum(packetBytes) 	2490
attr interpolationmode  none
attr source  sentPk
attr title  "packets sent, sum(packetBytes)"
scalar WirelessUnderlayNetworkOLSR.overlayTerminal[6].udp 	rcvdPk:count 	15
attr interpolationmode  none
attr source  rcvdPk
attr title  "packets received, count"
scalar WirelessUnderlayNetworkOLSR.overlayTerminal[6].udp 	rcvdPk:sum(packetBytes) 	2490
attr interpolationmode  none
attr source  rcvdPk
attr title  "packets received, sum(packetBytes)"
scalar WirelessUnderlayNetworkOLSR.overlayTerminal[6].networkLayer.arp 	initiatedARPResolution:count 	0
attr title  "ARP initiated resolutions, count"
scalar WirelessUnderlayNetworkOLSR.overlayTerminal[6].networkLayer.arp 	sentReply:count 	0
attr title  "ARP replies sent, count"
scalar WirelessUnderlayNetworkOLSR.overlayTerminal[6].networkLayer.arp 	sentReq:count 	0
attr title  "ARP request sent, count"
scalar WirelessUnderlayNetworkOLSR.overlayTerminal[6].networkLayer.arp 	failedARPResolution:count 	0
attr title  "ARP failed resolutions, count"
scalar WirelessUnderlayNetworkOLSR.overlayTerminal[6].networkLayer.arp 	completedARPResolution:count 	0
attr title  "ARP completed resolutions, count"
statistic WirelessUnderlayNetworkOLSR.overlayTerminal[6].wlan[0].queue 	queueingTime:histogram
field count 0
field mean nan
field stddev nan
field sum 0
field sqrsum 0
field min nan
field max nan
attr interpolationmode  none
attr title  "queueing time, histogram"
bin	-INF	0
bin	-0.5	0
bin	-0.46666666666667	0
bin	-0.43333333333333	0
bin	-0.4	0
bin	-0.36666666666667	0
bin	-0.33333333333333	0
bin	-0.3	0
bin	-0.26666666666667	0
bin	-0.23333333333333	0
bin	-0.2	0
bin	-0.16666666666667	0
bin	-0.13333333333333	0
bin	-0.1	0
bin	-0.066666666666667	0
bin	-0.033333333333333	0
bin	-6.9388939039072e-018	0
bin	0.033333333333333	0
bin	0.066666666666667	0
bin	0.1	0
bin	0.13333333333333	0
bin	0.16666666666667	0
bin	0.2	0
bin	0.23333333333333	0
bin	0.26666666666667	0
bin	0.3	0
bin	0.33333333333333	0
bin	0.36666666666667	0
bin	0.4	0
bin	0.43333333333333	0
bin	0.46666666666667	0
bin	0.5	0
scalar WirelessUnderlayNetworkOLSR.overlayTerminal[6].wlan[0].queue 	dropPk:count 	0
attr interpolationmode  none
attr source  dropPkByQueue
attr title  "dropped packets, count"
scalar WirelessUnderlayNetworkOLSR.overlayTerminal[6].wlan[0].queue 	dropPk:sum(packetBytes) 	0
attr interpolationmode  none
attr source  dropPkByQueue
attr title  "dropped packets, sum(packetBytes)"
scalar WirelessUnderlayNetworkOLSR.overlayTerminal[6].wlan[0].queue 	queueLength:max 	0
attr interpolationmode  sample-hold
attr title  "queue length, max"
scalar WirelessUnderlayNetworkOLSR.overlayTerminal[6].wlan[0].queue 	queueLength:timeavg 	0
attr interpolationmode  sample-hold
attr title  "queue length, timeavg"
scalar WirelessUnderlayNetworkOLSR.overlayTerminal[6].wlan[0].queue 	rcvdPk:count 	0
attr interpolationmode  none
attr title  "received packets, count"
scalar WirelessUnderlayNetworkOLSR.overlayTerminal[6].wlan[0].queue 	rcvdPk:sum(packetBytes) 	0
attr interpolationmode  none
attr title  "received packets, sum(packetBytes)"
scalar WirelessUnderlayNetworkOLSR.overlayTerminal[6].wlan[0].mac 	droppedPkNotForUs:count 	0
attr interpolationmode  none
attr source  dropPkNotForUs
attr title  "packets dropped/not for us, count"
scalar WirelessUnderlayNetworkOLSR.overlayTerminal[6].wlan[0].mac 	droppedPkNotForUs:sum(packetBytes) 	0
attr interpolationmode  none
attr source  dropPkNotForUs
attr title  "packets dropped/not for us, sum(packetBytes)"
scalar WirelessUnderlayNetworkOLSR.overlayTerminal[6].wlan[0].mac 	rcvdPkFromHL:count 	0
attr interpolationmode  none
attr source  packetReceivedFromUpper
attr title  "packets received from higher layer, count"
scalar WirelessUnderlayNetworkOLSR.overlayTerminal[6].wlan[0].mac 	rcvdPkFromHL:sum(packetBytes) 	0
attr interpolationmode  none
attr source  packetReceivedFromUpper
attr title  "packets received from higher layer, sum(packetBytes)"
scalar WirelessUnderlayNetworkOLSR.overlayTerminal[6].wlan[0].mac 	passedUpPk:count 	0
attr interpolationmode  none
attr source  packetSentToUpper
attr title  "packets passed to higher layer, count"
scalar WirelessUnderlayNetworkOLSR.overlayTerminal[6].wlan[0].mac 	passedUpPk:sum(packetBytes) 	0
attr interpolationmode  none
attr source  packetSentToUpper
attr title  "packets passed to higher layer, sum(packetBytes)"
scalar WirelessUnderlayNetworkOLSR.overlayTerminal[6].wlan[0].mac 	rcvdPkFromLL:count 	0
attr interpolationmode  none
attr source  packetReceivedFromLower
attr title  "packets received from lower layer, count"
scalar WirelessUnderlayNetworkOLSR.overlayTerminal[6].wlan[0].mac 	rcvdPkFromLL:sum(packetBytes) 	0
attr interpolationmode  none
attr source  packetReceivedFromLower
attr title  "packets received from lower layer, sum(packetBytes)"
scalar WirelessUnderlayNetworkOLSR.overlayTerminal[6].wlan[0].mac 	sentDownPk:count 	0
attr interpolationmode  none
attr source  packetSentToLower
attr title  "packets sent to lower layer, count"
scalar WirelessUnderlayNetworkOLSR.overlayTerminal[6].wlan[0].mac 	sentDownPk:sum(packetBytes) 	0
attr interpolationmode  none
attr source  packetSentToLower
attr title  "packets sent to lower layer, sum(packetBytes)"
scalar WirelessUnderlayNetworkOLSR.overlayTerminal[6].loopbackInterface.lo 	rcvdPkFromHL:count 	15
attr interpolationmode  none
attr source  packetReceivedFromUpper
attr title  "packets received from higher layer, count"
scalar WirelessUnderlayNetworkOLSR.overlayTerminal[6].loopbackInterface.lo 	rcvdPkFromHL:sum(packetBytes) 	2790
attr interpolationmode  none
attr source  packetReceivedFromUpper
attr title  "packets received from higher layer, sum(packetBytes)"
scalar WirelessUnderlayNetworkOLSR.overlayTerminal[6].loopbackInterface.lo 	passedUpPk:count 	15
attr interpolationmode  none
attr source  packetSentToUpper
attr title  "packets passed to higher layer, count"
scalar WirelessUnderlayNetworkOLSR.overlayTerminal[6].loopbackInterface.lo 	passedUpPk:sum(packetBytes) 	2790
attr interpolationmode  none
attr source  packetSentToUpper
attr title  "packets passed to higher layer, sum(packetBytes)"
scalar WirelessUnderlayNetworkOLSR.overlayTerminal[6].loopbackInterface.lo 	droppedPkBitError:count 	0
attr interpolationmode  none
attr source  dropPkBitError
attr title  "packets dropped/bit error, count"
scalar WirelessUnderlayNetworkOLSR.overlayTerminal[6].loopbackInterface.lo 	droppedPkBitError:sum(packetBytes) 	0
attr interpolationmode  none
attr source  dropPkBitError
attr title  "packets dropped/bit error, sum(packetBytes)"
scalar WirelessUnderlayNetworkOLSR.overlayTerminal[7].udp 	droppedPkBadChecksum:count 	0
attr interpolationmode  none
attr title  "packets dropped (checksum error), count"
scalar WirelessUnderlayNetworkOLSR.overlayTerminal[7].udp 	droppedPkWrongPort:count 	0
attr interpolationmode  none
attr title  "packets dropped (wrong port), count"
scalar WirelessUnderlayNetworkOLSR.overlayTerminal[7].udp 	passedUpPk:count 	15
attr interpolationmode  none
attr title  "packets passed up, count"
scalar WirelessUnderlayNetworkOLSR.overlayTerminal[7].udp 	sentPk:count 	15
attr interpolationmode  none
attr source  sentPk
attr title  "packets sent, count"
scalar WirelessUnderlayNetworkOLSR.overlayTerminal[7].udp 	sentPk:sum(packetBytes) 	2490
attr interpolationmode  none
attr source  sentPk
attr title  "packets sent, sum(packetBytes)"
scalar WirelessUnderlayNetworkOLSR.overlayTerminal[7].udp 	rcvdPk:count 	15
attr interpolationmode  none
attr source  rcvdPk
attr title  "packets received, count"
scalar WirelessUnderlayNetworkOLSR.overlayTerminal[7].udp 	rcvdPk:sum(packetBytes) 	2490
attr interpolationmode  none
attr source  rcvdPk
attr title  "packets received, sum(packetBytes)"
scalar WirelessUnderlayNetworkOLSR.overlayTerminal[7].networkLayer.arp 	initiatedARPResolution:count 	0
attr title  "ARP initiated resolutions, count"
scalar WirelessUnderlayNetworkOLSR.overlayTerminal[7].networkLayer.arp 	sentReply:count 	0
attr title  "ARP replies sent, count"
scalar WirelessUnderlayNetworkOLSR.overlayTerminal[7].networkLayer.arp 	sentReq:count 	0
attr title  "ARP request sent, count"
scalar WirelessUnderlayNetworkOLSR.overlayTerminal[7].networkLayer.arp 	failedARPResolution:count 	0
attr title  "ARP failed resolutions, count"
scalar WirelessUnderlayNetworkOLSR.overlayTerminal[7].networkLayer.arp 	completedARPResolution:count 	0
attr title  "ARP completed resolutions, count"
statistic WirelessUnderlayNetworkOLSR.overlayTerminal[7].wlan[0].queue 	queueingTime:histogram
field count 0
field mean nan
field stddev nan
field sum 0
field sqrsum 0
field min nan
field max nan
attr interpolationmode  none
attr title  "queueing time, histogram"
bin	-INF	0
bin	-0.5	0
bin	-0.46666666666667	0
bin	-0.43333333333333	0
bin	-0.4	0
bin	-0.36666666666667	0
bin	-0.33333333333333	0
bin	-0.3	0
bin	-0.26666666666667	0
bin	-0.23333333333333	0
bin	-0.2	0
bin	-0.16666666666667	0
bin	-0.13333333333333	0
bin	-0.1	0
bin	-0.066666666666667	0
bin	-0.033333333333333	0
bin	-6.9388939039072e-018	0
bin	0.033333333333333	0
bin	0.066666666666667	0
bin	0.1	0
bin	0.13333333333333	0
bin	0.16666666666667	0
bin	0.2	0
bin	0.23333333333333	0
bin	0.26666666666667	0
bin	0.3	0
bin	0.33333333333333	0
bin	0.36666666666667	0
bin	0.4	0
bin	0.43333333333333	0
bin	0.46666666666667	0
bin	0.5	0
scalar WirelessUnderlayNetworkOLSR.overlayTerminal[7].wlan[0].queue 	dropPk:count 	0
attr interpolationmode  none
attr source  dropPkByQueue
attr title  "dropped packets, count"
scalar WirelessUnderlayNetworkOLSR.overlayTerminal[7].wlan[0].queue 	dropPk:sum(packetBytes) 	0
attr interpolationmode  none
attr source  dropPkByQueue
attr title  "dropped packets, sum(packetBytes)"
scalar WirelessUnderlayNetworkOLSR.overlayTerminal[7].wlan[0].queue 	queueLength:max 	0
attr interpolationmode  sample-hold
attr title  "queue length, max"
scalar WirelessUnderlayNetworkOLSR.overlayTerminal[7].wlan[0].queue 	queueLength:timeavg 	0
attr interpolationmode  sample-hold
attr title  "queue length, timeavg"
scalar WirelessUnderlayNetworkOLSR.overlayTerminal[7].wlan[0].queue 	rcvdPk:count 	0
attr interpolationmode  none
attr title  "received packets, count"
scalar WirelessUnderlayNetworkOLSR.overlayTerminal[7].wlan[0].queue 	rcvdPk:sum(packetBytes) 	0
attr interpolationmode  none
attr title  "received packets, sum(packetBytes)"
scalar WirelessUnderlayNetworkOLSR.overlayTerminal[7].wlan[0].mac 	droppedPkNotForUs:count 	0
attr interpolationmode  none
attr source  dropPkNotForUs
attr title  "packets dropped/not for us, count"
scalar WirelessUnderlayNetworkOLSR.overlayTerminal[7].wlan[0].mac 	droppedPkNotForUs:sum(packetBytes) 	0
attr interpolationmode  none
attr source  dropPkNotForUs
attr title  "packets dropped/not for us, sum(packetBytes)"
scalar WirelessUnderlayNetworkOLSR.overlayTerminal[7].wlan[0].mac 	rcvdPkFromHL:count 	0
attr interpolationmode  none
attr source  packetReceivedFromUpper
attr title  "packets received from higher layer, count"
scalar WirelessUnderlayNetworkOLSR.overlayTerminal[7].wlan[0].mac 	rcvdPkFromHL:sum(packetBytes) 	0
attr interpolationmode  none
attr source  packetReceivedFromUpper
attr title  "packets received from higher layer, sum(packetBytes)"
scalar WirelessUnderlayNetworkOLSR.overlayTerminal[7].wlan[0].mac 	passedUpPk:count 	0
attr interpolationmode  none
attr source  packetSentToUpper
attr title  "packets passed to higher layer, count"
scalar WirelessUnderlayNetworkOLSR.overlayTerminal[7].wlan[0].mac 	passedUpPk:sum(packetBytes) 	0
attr interpolationmode  none
attr source  packetSentToUpper
attr title  "packets passed to higher layer, sum(packetBytes)"
scalar WirelessUnderlayNetworkOLSR.overlayTerminal[7].wlan[0].mac 	rcvdPkFromLL:count 	0
attr interpolationmode  none
attr source  packetReceivedFromLower
attr title  "packets received from lower layer, count"
scalar WirelessUnderlayNetworkOLSR.overlayTerminal[7].wlan[0].mac 	rcvdPkFromLL:sum(packetBytes) 	0
attr interpolationmode  none
attr source  packetReceivedFromLower
attr title  "packets received from lower layer, sum(packetBytes)"
scalar WirelessUnderlayNetworkOLSR.overlayTerminal[7].wlan[0].mac 	sentDownPk:count 	0
attr interpolationmode  none
attr source  packetSentToLower
attr title  "packets sent to lower layer, count"
scalar WirelessUnderlayNetworkOLSR.overlayTerminal[7].wlan[0].mac 	sentDownPk:sum(packetBytes) 	0
attr interpolationmode  none
attr source  packetSentToLower
attr title  "packets sent to lower layer, sum(packetBytes)"
scalar WirelessUnderlayNetworkOLSR.overlayTerminal[7].loopbackInterface.lo 	rcvdPkFromHL:count 	15
attr interpolationmode  none
attr source  packetReceivedFromUpper
attr title  "packets received from higher layer, count"
scalar WirelessUnderlayNetworkOLSR.overlayTerminal[7].loopbackInterface.lo 	rcvdPkFromHL:sum(packetBytes) 	2790
attr interpolationmode  none
attr source  packetReceivedFromUpper
attr title  "packets received from higher layer, sum(packetBytes)"
scalar WirelessUnderlayNetworkOLSR.overlayTerminal[7].loopbackInterface.lo 	passedUpPk:count 	15
attr interpolationmode  none
attr source  packetSentToUpper
attr title  "packets passed to higher layer, count"
scalar WirelessUnderlayNetworkOLSR.overlayTerminal[7].loopbackInterface.lo 	passedUpPk:sum(packetBytes) 	2790
attr interpolationmode  none
attr source  packetSentToUpper
attr title  "packets passed to higher layer, sum(packetBytes)"
scalar WirelessUnderlayNetworkOLSR.overlayTerminal[7].loopbackInterface.lo 	droppedPkBitError:count 	0
attr interpolationmode  none
attr source  dropPkBitError
attr title  "packets dropped/bit error, count"
scalar WirelessUnderlayNetworkOLSR.overlayTerminal[7].loopbackInterface.lo 	droppedPkBitError:sum(packetBytes) 	0
attr interpolationmode  none
attr source  dropPkBitError
attr title  "packets dropped/bit error, sum(packetBytes)"
scalar WirelessUnderlayNetworkOLSR.overlayTerminal[8].udp 	droppedPkBadChecksum:count 	0
attr interpolationmode  none
attr title  "packets dropped (checksum error), count"
scalar WirelessUnderlayNetworkOLSR.overlayTerminal[8].udp 	droppedPkWrongPort:count 	0
attr interpolationmode  none
attr title  "packets dropped (wrong port), count"
scalar WirelessUnderlayNetworkOLSR.overlayTerminal[8].udp 	passedUpPk:count 	15
attr interpolationmode  none
attr title  "packets passed up, count"
scalar WirelessUnderlayNetworkOLSR.overlayTerminal[8].udp 	sentPk:count 	15
attr interpolationmode  none
attr source  sentPk
attr title  "packets sent, count"
scalar WirelessUnderlayNetworkOLSR.overlayTerminal[8].udp 	sentPk:sum(packetBytes) 	2490
attr interpolationmode  none
attr source  sentPk
attr title  "packets sent, sum(packetBytes)"
scalar WirelessUnderlayNetworkOLSR.overlayTerminal[8].udp 	rcvdPk:count 	15
attr interpolationmode  none
attr source  rcvdPk
attr title  "packets received, count"
scalar WirelessUnderlayNetworkOLSR.overlayTerminal[8].udp 	rcvdPk:sum(packetBytes) 	2490
attr interpolationmode  none
attr source  rcvdPk
attr title  "packets received, sum(packetBytes)"
scalar WirelessUnderlayNetworkOLSR.overlayTerminal[8].networkLayer.arp 	initiatedARPResolution:count 	0
attr title  "ARP initiated resolutions, count"
scalar WirelessUnderlayNetworkOLSR.overlayTerminal[8].networkLayer.arp 	sentReply:count 	0
attr title  "ARP replies sent, count"
scalar WirelessUnderlayNetworkOLSR.overlayTerminal[8].networkLayer.arp 	sentReq:count 	0
attr title  "ARP request sent, count"
scalar WirelessUnderlayNetworkOLSR.overlayTerminal[8].networkLayer.arp 	failedARPResolution:count 	0
attr title  "ARP failed resolutions, count"
scalar WirelessUnderlayNetworkOLSR.overlayTerminal[8].networkLayer.arp 	completedARPResolution:count 	0
attr title  "ARP completed resolutions, count"
statistic WirelessUnderlayNetworkOLSR.overlayTerminal[8].wlan[0].queue 	queueingTime:histogram
field count 0
field mean nan
field stddev nan
field sum 0
field sqrsum 0
field min nan
field max nan
attr interpolationmode  none
attr title  "queueing time, histogram"
bin	-INF	0
bin	-0.5	0
bin	-0.46666666666667	0
bin	-0.43333333333333	0
bin	-0.4	0
bin	-0.36666666666667	0
bin	-0.33333333333333	0
bin	-0.3	0
bin	-0.26666666666667	0
bin	-0.23333333333333	0
bin	-0.2	0
bin	-0.16666666666667	0
bin	-0.13333333333333	0
bin	-0.1	0
bin	-0.066666666666667	0
bin	-0.033333333333333	0
bin	-6.9388939039072e-018	0
bin	0.033333333333333	0
bin	0.066666666666667	0
bin	0.1	0
bin	0.13333333333333	0
bin	0.16666666666667	0
bin	0.2	0
bin	0.23333333333333	0
bin	0.26666666666667	0
bin	0.3	0
bin	0.33333333333333	0
bin	0.36666666666667	0
bin	0.4	0
bin	0.43333333333333	0
bin	0.46666666666667	0
bin	0.5	0
scalar WirelessUnderlayNetworkOLSR.overlayTerminal[8].wlan[0].queue 	dropPk:count 	0
attr interpolationmode  none
attr source  dropPkByQueue
attr title  "dropped packets, count"
scalar WirelessUnderlayNetworkOLSR.overlayTerminal[8].wlan[0].queue 	dropPk:sum(packetBytes) 	0
attr interpolationmode  none
attr source  dropPkByQueue
attr title  "dropped packets, sum(packetBytes)"
scalar WirelessUnderlayNetworkOLSR.overlayTerminal[8].wlan[0].queue 	queueLength:max 	0
attr interpolationmode  sample-hold
attr title  "queue length, max"
scalar WirelessUnderlayNetworkOLSR.overlayTerminal[8].wlan[0].queue 	queueLength:timeavg 	0
attr interpolationmode  sample-hold
attr title  "queue length, timeavg"
scalar WirelessUnderlayNetworkOLSR.overlayTerminal[8].wlan[0].queue 	rcvdPk:count 	0
attr interpolationmode  none
attr title  "received packets, count"
scalar WirelessUnderlayNetworkOLSR.overlayTerminal[8].wlan[0].queue 	rcvdPk:sum(packetBytes) 	0
attr interpolationmode  none
attr title  "received packets, sum(packetBytes)"
scalar WirelessUnderlayNetworkOLSR.overlayTerminal[8].wlan[0].mac 	droppedPkNotForUs:count 	0
attr interpolationmode  none
attr source  dropPkNotForUs
attr title  "packets dropped/not for us, count"
scalar WirelessUnderlayNetworkOLSR.overlayTerminal[8].wlan[0].mac 	droppedPkNotForUs:sum(packetBytes) 	0
attr interpolationmode  none
attr source  dropPkNotForUs
attr title  "packets dropped/not for us, sum(packetBytes)"
scalar WirelessUnderlayNetworkOLSR.overlayTerminal[8].wlan[0].mac 	rcvdPkFromHL:count 	0
attr interpolationmode  none
attr source  packetReceivedFromUpper
attr title  "packets received from higher layer, count"
scalar WirelessUnderlayNetworkOLSR.overlayTerminal[8].wlan[0].mac 	rcvdPkFromHL:sum(packetBytes) 	0
attr interpolationmode  none
attr source  packetReceivedFromUpper
attr title  "packets received from higher layer, sum(packetBytes)"
scalar WirelessUnderlayNetworkOLSR.overlayTerminal[8].wlan[0].mac 	passedUpPk:count 	0
attr interpolationmode  none
attr source  packetSentToUpper
attr title  "packets passed to higher layer, count"
scalar WirelessUnderlayNetworkOLSR.overlayTerminal[8].wlan[0].mac 	passedUpPk:sum(packetBytes) 	0
attr interpolationmode  none
attr source  packetSentToUpper
attr title  "packets passed to higher layer, sum(packetBytes)"
scalar WirelessUnderlayNetworkOLSR.overlayTerminal[8].wlan[0].mac 	rcvdPkFromLL:count 	0
attr interpolationmode  none
attr source  packetReceivedFromLower
attr title  "packets received from lower layer, count"
scalar WirelessUnderlayNetworkOLSR.overlayTerminal[8].wlan[0].mac 	rcvdPkFromLL:sum(packetBytes) 	0
attr interpolationmode  none
attr source  packetReceivedFromLower
attr title  "packets received from lower layer, sum(packetBytes)"
scalar WirelessUnderlayNetworkOLSR.overlayTerminal[8].wlan[0].mac 	sentDownPk:count 	0
attr interpolationmode  none
attr source  packetSentToLower
attr title  "packets sent to lower layer, count"
scalar WirelessUnderlayNetworkOLSR.overlayTerminal[8].wlan[0].mac 	sentDownPk:sum(packetBytes) 	0
attr interpolationmode  none
attr source  packetSentToLower
attr title  "packets sent to lower layer, sum(packetBytes)"
scalar WirelessUnderlayNetworkOLSR.overlayTerminal[8].loopbackInterface.lo 	rcvdPkFromHL:count 	15
attr interpolationmode  none
attr source  packetReceivedFromUpper
attr title  "packets received from higher layer, count"
scalar WirelessUnderlayNetworkOLSR.overlayTerminal[8].loopbackInterface.lo 	rcvdPkFromHL:sum(packetBytes) 	2790
attr interpolationmode  none
attr source  packetReceivedFromUpper
attr title  "packets received from higher layer, sum(packetBytes)"
scalar WirelessUnderlayNetworkOLSR.overlayTerminal[8].loopbackInterface.lo 	passedUpPk:count 	15
attr interpolationmode  none
attr source  packetSentToUpper
attr title  "packets passed to higher layer, count"
scalar WirelessUnderlayNetworkOLSR.overlayTerminal[8].loopbackInterface.lo 	passedUpPk:sum(packetBytes) 	2790
attr interpolationmode  none
attr source  packetSentToUpper
attr title  "packets passed to higher layer, sum(packetBytes)"
scalar WirelessUnderlayNetworkOLSR.overlayTerminal[8].loopbackInterface.lo 	droppedPkBitError:count 	0
attr interpolationmode  none
attr source  dropPkBitError
attr title  "packets dropped/bit error, count"
scalar WirelessUnderlayNetworkOLSR.overlayTerminal[8].loopbackInterface.lo 	droppedPkBitError:sum(packetBytes) 	0
attr interpolationmode  none
attr source  dropPkBitError
attr title  "packets dropped/bit error, sum(packetBytes)"
scalar WirelessUnderlayNetworkOLSR.overlayTerminal[9].udp 	droppedPkBadChecksum:count 	0
attr interpolationmode  none
attr title  "packets dropped (checksum error), count"
scalar WirelessUnderlayNetworkOLSR.overlayTerminal[9].udp 	droppedPkWrongPort:count 	0
attr interpolationmode  none
attr title  "packets dropped (wrong port), count"
scalar WirelessUnderlayNetworkOLSR.overlayTerminal[9].udp 	passedUpPk:count 	15
attr interpolationmode  none
attr title  "packets passed up, count"
scalar WirelessUnderlayNetworkOLSR.overlayTerminal[9].udp 	sentPk:count 	15
attr interpolationmode  none
attr source  sentPk
attr title  "packets sent, count"
scalar WirelessUnderlayNetworkOLSR.overlayTerminal[9].udp 	sentPk:sum(packetBytes) 	2490
attr interpolationmode  none
attr source  sentPk
attr title  "packets sent, sum(packetBytes)"
scalar WirelessUnderlayNetworkOLSR.overlayTerminal[9].udp 	rcvdPk:count 	15
attr interpolationmode  none
attr source  rcvdPk
attr title  "packets received, count"
scalar WirelessUnderlayNetworkOLSR.overlayTerminal[9].udp 	rcvdPk:sum(packetBytes) 	2490
attr interpolationmode  none
attr source  rcvdPk
attr title  "packets received, sum(packetBytes)"
scalar WirelessUnderlayNetworkOLSR.overlayTerminal[9].networkLayer.arp 	initiatedARPResolution:count 	0
attr title  "ARP initiated resolutions, count"
scalar WirelessUnderlayNetworkOLSR.overlayTerminal[9].networkLayer.arp 	sentReply:count 	0
attr title  "ARP replies sent, count"
scalar WirelessUnderlayNetworkOLSR.overlayTerminal[9].networkLayer.arp 	sentReq:count 	0
attr title  "ARP request sent, count"
scalar WirelessUnderlayNetworkOLSR.overlayTerminal[9].networkLayer.arp 	failedARPResolution:count 	0
attr title  "ARP failed resolutions, count"
scalar WirelessUnderlayNetworkOLSR.overlayTerminal[9].networkLayer.arp 	completedARPResolution:count 	0
attr title  "ARP completed resolutions, count"
statistic WirelessUnderlayNetworkOLSR.overlayTerminal[9].wlan[0].queue 	queueingTime:histogram
field count 0
field mean nan
field stddev nan
field sum 0
field sqrsum 0
field min nan
field max nan
attr interpolationmode  none
attr title  "queueing time, histogram"
bin	-INF	0
bin	-0.5	0
bin	-0.46666666666667	0
bin	-0.43333333333333	0
bin	-0.4	0
bin	-0.36666666666667	0
bin	-0.33333333333333	0
bin	-0.3	0
bin	-0.26666666666667	0
bin	-0.23333333333333	0
bin	-0.2	0
bin	-0.16666666666667	0
bin	-0.13333333333333	0
bin	-0.1	0
bin	-0.066666666666667	0
bin	-0.033333333333333	0
bin	-6.9388939039072e-018	0
bin	0.033333333333333	0
bin	0.066666666666667	0
bin	0.1	0
bin	0.13333333333333	0
bin	0.16666666666667	0
bin	0.2	0
bin	0.23333333333333	0
bin	0.26666666666667	0
bin	0.3	0
bin	0.33333333333333	0
bin	0.36666666666667	0
bin	0.4	0
bin	0.43333333333333	0
bin	0.46666666666667	0
bin	0.5	0
scalar WirelessUnderlayNetworkOLSR.overlayTerminal[9].wlan[0].queue 	dropPk:count 	0
attr interpolationmode  none
attr source  dropPkByQueue
attr title  "dropped packets, count"
scalar WirelessUnderlayNetworkOLSR.overlayTerminal[9].wlan[0].queue 	dropPk:sum(packetBytes) 	0
attr interpolationmode  none
attr source  dropPkByQueue
attr title  "dropped packets, sum(packetBytes)"
scalar WirelessUnderlayNetworkOLSR.overlayTerminal[9].wlan[0].queue 	queueLength:max 	0
attr interpolationmode  sample-hold
attr title  "queue length, max"
scalar WirelessUnderlayNetworkOLSR.overlayTerminal[9].wlan[0].queue 	queueLength:timeavg 	0
attr interpolationmode  sample-hold
attr title  "queue length, timeavg"
scalar WirelessUnderlayNetworkOLSR.overlayTerminal[9].wlan[0].queue 	rcvdPk:count 	0
attr interpolationmode  none
attr title  "received packets, count"
scalar WirelessUnderlayNetworkOLSR.overlayTerminal[9].wlan[0].queue 	rcvdPk:sum(packetBytes) 	0
attr interpolationmode  none
attr title  "received packets, sum(packetBytes)"
scalar WirelessUnderlayNetworkOLSR.overlayTerminal[9].wlan[0].mac 	droppedPkNotForUs:count 	0
attr interpolationmode  none
attr source  dropPkNotForUs
attr title  "packets dropped/not for us, count"
scalar WirelessUnderlayNetworkOLSR.overlayTerminal[9].wlan[0].mac 	droppedPkNotForUs:sum(packetBytes) 	0
attr interpolationmode  none
attr source  dropPkNotForUs
attr title  "packets dropped/not for us, sum(packetBytes)"
scalar WirelessUnderlayNetworkOLSR.overlayTerminal[9].wlan[0].mac 	rcvdPkFromHL:count 	0
attr interpolationmode  none
attr source  packetReceivedFromUpper
attr title  "packets received from higher layer, count"
scalar WirelessUnderlayNetworkOLSR.overlayTerminal[9].wlan[0].mac 	rcvdPkFromHL:sum(packetBytes) 	0
attr interpolationmode  none
attr source  packetReceivedFromUpper
attr title  "packets received from higher layer, sum(packetBytes)"
scalar WirelessUnderlayNetworkOLSR.overlayTerminal[9].wlan[0].mac 	passedUpPk:count 	0
attr interpolationmode  none
attr source  packetSentToUpper
attr title  "packets passed to higher layer, count"
scalar WirelessUnderlayNetworkOLSR.overlayTerminal[9].wlan[0].mac 	passedUpPk:sum(packetBytes) 	0
attr interpolationmode  none
attr source  packetSentToUpper
attr title  "packets passed to higher layer, sum(packetBytes)"
scalar WirelessUnderlayNetworkOLSR.overlayTerminal[9].wlan[0].mac 	rcvdPkFromLL:count 	0
attr interpolationmode  none
attr source  packetReceivedFromLower
attr title  "packets received from lower layer, count"
scalar WirelessUnderlayNetworkOLSR.overlayTerminal[9].wlan[0].mac 	rcvdPkFromLL:sum(packetBytes) 	0
attr interpolationmode  none
attr source  packetReceivedFromLower
attr title  "packets received from lower layer, sum(packetBytes)"
scalar WirelessUnderlayNetworkOLSR.overlayTerminal[9].wlan[0].mac 	sentDownPk:count 	0
attr interpolationmode  none
attr source  packetSentToLower
attr title  "packets sent to lower layer, count"
scalar WirelessUnderlayNetworkOLSR.overlayTerminal[9].wlan[0].mac 	sentDownPk:sum(packetBytes) 	0
attr interpolationmode  none
attr source  packetSentToLower
attr title  "packets sent to lower layer, sum(packetBytes)"
scalar WirelessUnderlayNetworkOLSR.overlayTerminal[9].loopbackInterface.lo 	rcvdPkFromHL:count 	15
attr interpolationmode  none
attr source  packetReceivedFromUpper
attr title  "packets received from higher layer, count"
scalar WirelessUnderlayNetworkOLSR.overlayTerminal[9].loopbackInterface.lo 	rcvdPkFromHL:sum(packetBytes) 	2790
attr interpolationmode  none
attr source  packetReceivedFromUpper
attr title  "packets received from higher layer, sum(packetBytes)"
scalar WirelessUnderlayNetworkOLSR.overlayTerminal[9].loopbackInterface.lo 	passedUpPk:count 	15
attr interpolationmode  none
attr source  packetSentToUpper
attr title  "packets passed to higher layer, count"
scalar WirelessUnderlayNetworkOLSR.overlayTerminal[9].loopbackInterface.lo 	passedUpPk:sum(packetBytes) 	2790
attr interpolationmode  none
attr source  packetSentToUpper
attr title  "packets passed to higher layer, sum(packetBytes)"
scalar WirelessUnderlayNetworkOLSR.overlayTerminal[9].loopbackInterface.lo 	droppedPkBitError:count 	0
attr interpolationmode  none
attr source  dropPkBitError
attr title  "packets dropped/bit error, count"
scalar WirelessUnderlayNetworkOLSR.overlayTerminal[9].loopbackInterface.lo 	droppedPkBitError:sum(packetBytes) 	0
attr interpolationmode  none
attr source  dropPkBitError
attr title  "packets dropped/bit error, sum(packetBytes)"
scalar WirelessUnderlayNetworkOLSR.overlayTerminal[10].udp 	droppedPkBadChecksum:count 	0
attr interpolationmode  none
attr title  "packets dropped (checksum error), count"
scalar WirelessUnderlayNetworkOLSR.overlayTerminal[10].udp 	droppedPkWrongPort:count 	0
attr interpolationmode  none
attr title  "packets dropped (wrong port), count"
scalar WirelessUnderlayNetworkOLSR.overlayTerminal[10].udp 	passedUpPk:count 	15
attr interpolationmode  none
attr title  "packets passed up, count"
scalar WirelessUnderlayNetworkOLSR.overlayTerminal[10].udp 	sentPk:count 	15
attr interpolationmode  none
attr source  sentPk
attr title  "packets sent, count"
scalar WirelessUnderlayNetworkOLSR.overlayTerminal[10].udp 	sentPk:sum(packetBytes) 	2490
attr interpolationmode  none
attr source  sentPk
attr title  "packets sent, sum(packetBytes)"
scalar WirelessUnderlayNetworkOLSR.overlayTerminal[10].udp 	rcvdPk:count 	15
attr interpolationmode  none
attr source  rcvdPk
attr title  "packets received, count"
scalar WirelessUnderlayNetworkOLSR.overlayTerminal[10].udp 	rcvdPk:sum(packetBytes) 	2490
attr interpolationmode  none
attr source  rcvdPk
attr title  "packets received, sum(packetBytes)"
scalar WirelessUnderlayNetworkOLSR.overlayTerminal[10].networkLayer.arp 	initiatedARPResolution:count 	0
attr title  "ARP initiated resolutions, count"
scalar WirelessUnderlayNetworkOLSR.overlayTerminal[10].networkLayer.arp 	sentReply:count 	0
attr title  "ARP replies sent, count"
scalar WirelessUnderlayNetworkOLSR.overlayTerminal[10].networkLayer.arp 	sentReq:count 	0
attr title  "ARP request sent, count"
scalar WirelessUnderlayNetworkOLSR.overlayTerminal[10].networkLayer.arp 	failedARPResolution:count 	0
attr title  "ARP failed resolutions, count"
scalar WirelessUnderlayNetworkOLSR.overlayTerminal[10].networkLayer.arp 	completedARPResolution:count 	0
attr title  "ARP completed resolutions, count"
statistic WirelessUnderlayNetworkOLSR.overlayTerminal[10].wlan[0].queue 	queueingTime:histogram
field count 0
field mean nan
field stddev nan
field sum 0
field sqrsum 0
field min nan
field max nan
attr interpolationmode  none
attr title  "queueing time, histogram"
bin	-INF	0
bin	-0.5	0
bin	-0.46666666666667	0
bin	-0.43333333333333	0
bin	-0.4	0
bin	-0.36666666666667	0
bin	-0.33333333333333	0
bin	-0.3	0
bin	-0.26666666666667	0
bin	-0.23333333333333	0
bin	-0.2	0
bin	-0.16666666666667	0
bin	-0.13333333333333	0
bin	-0.1	0
bin	-0.066666666666667	0
bin	-0.033333333333333	0
bin	-6.9388939039072e-018	0
bin	0.033333333333333	0
bin	0.066666666666667	0
bin	0.1	0
bin	0.13333333333333	0
bin	0.16666666666667	0
bin	0.2	0
bin	0.23333333333333	0
bin	0.26666666666667	0
bin	0.3	0
bin	0.33333333333333	0
bin	0.36666666666667	0
bin	0.4	0
bin	0.43333333333333	0
bin	0.46666666666667	0
bin	0.5	0
scalar WirelessUnderlayNetworkOLSR.overlayTerminal[10].wlan[0].queue 	dropPk:count 	0
attr interpolationmode  none
attr source  dropPkByQueue
attr title  "dropped packets, count"
scalar WirelessUnderlayNetworkOLSR.overlayTerminal[10].wlan[0].queue 	dropPk:sum(packetBytes) 	0
attr interpolationmode  none
attr source  dropPkByQueue
attr title  "dropped packets, sum(packetBytes)"
scalar WirelessUnderlayNetworkOLSR.overlayTerminal[10].wlan[0].queue 	queueLength:max 	0
attr interpolationmode  sample-hold
attr title  "queue length, max"
scalar WirelessUnderlayNetworkOLSR.overlayTerminal[10].wlan[0].queue 	queueLength:timeavg 	0
attr interpolationmode  sample-hold
attr title  "queue length, timeavg"
scalar WirelessUnderlayNetworkOLSR.overlayTerminal[10].wlan[0].queue 	rcvdPk:count 	0
attr interpolationmode  none
attr title  "received packets, count"
scalar WirelessUnderlayNetworkOLSR.overlayTerminal[10].wlan[0].queue 	rcvdPk:sum(packetBytes) 	0
attr interpolationmode  none
attr title  "received packets, sum(packetBytes)"
scalar WirelessUnderlayNetworkOLSR.overlayTerminal[10].wlan[0].mac 	droppedPkNotForUs:count 	0
attr interpolationmode  none
attr source  dropPkNotForUs
attr title  "packets dropped/not for us, count"
scalar WirelessUnderlayNetworkOLSR.overlayTerminal[10].wlan[0].mac 	droppedPkNotForUs:sum(packetBytes) 	0
attr interpolationmode  none
attr source  dropPkNotForUs
attr title  "packets dropped/not for us, sum(packetBytes)"
scalar WirelessUnderlayNetworkOLSR.overlayTerminal[10].wlan[0].mac 	rcvdPkFromHL:count 	0
attr interpolationmode  none
attr source  packetReceivedFromUpper
attr title  "packets received from higher layer, count"
scalar WirelessUnderlayNetworkOLSR.overlayTerminal[10].wlan[0].mac 	rcvdPkFromHL:sum(packetBytes) 	0
attr interpolationmode  none
attr source  packetReceivedFromUpper
attr title  "packets received from higher layer, sum(packetBytes)"
scalar WirelessUnderlayNetworkOLSR.overlayTerminal[10].wlan[0].mac 	passedUpPk:count 	0
attr interpolationmode  none
attr source  packetSentToUpper
attr title  "packets passed to higher layer, count"
scalar WirelessUnderlayNetworkOLSR.overlayTerminal[10].wlan[0].mac 	passedUpPk:sum(packetBytes) 	0
attr interpolationmode  none
attr source  packetSentToUpper
attr title  "packets passed to higher layer, sum(packetBytes)"
scalar WirelessUnderlayNetworkOLSR.overlayTerminal[10].wlan[0].mac 	rcvdPkFromLL:count 	0
attr interpolationmode  none
attr source  packetReceivedFromLower
attr title  "packets received from lower layer, count"
scalar WirelessUnderlayNetworkOLSR.overlayTerminal[10].wlan[0].mac 	rcvdPkFromLL:sum(packetBytes) 	0
attr interpolationmode  none
attr source  packetReceivedFromLower
attr title  "packets received from lower layer, sum(packetBytes)"
scalar WirelessUnderlayNetworkOLSR.overlayTerminal[10].wlan[0].mac 	sentDownPk:count 	0
attr interpolationmode  none
attr source  packetSentToLower
attr title  "packets sent to lower layer, count"
[...]
attr interpolationmode  none
attr source  packetSentToLower
attr title  "packets sent to lower layer, sum(packetBytes)"
scalar WirelessUnderlayNetworkOLSR.overlayTerminal[98].loopbackInterface.lo 	rcvdPkFromHL:count 	14
attr interpolationmode  none
attr source  packetReceivedFromUpper
attr title  "packets received from higher layer, count"
scalar WirelessUnderlayNetworkOLSR.overlayTerminal[98].loopbackInterface.lo 	rcvdPkFromHL:sum(packetBytes) 	2604
attr interpolationmode  none
attr source  packetReceivedFromUpper
attr title  "packets received from higher layer, sum(packetBytes)"
scalar WirelessUnderlayNetworkOLSR.overlayTerminal[98].loopbackInterface.lo 	passedUpPk:count 	14
attr interpolationmode  none
attr source  packetSentToUpper
attr title  "packets passed to higher layer, count"
scalar WirelessUnderlayNetworkOLSR.overlayTerminal[98].loopbackInterface.lo 	passedUpPk:sum(packetBytes) 	2604
attr interpolationmode  none
attr source  packetSentToUpper
attr title  "packets passed to higher layer, sum(packetBytes)"
scalar WirelessUnderlayNetworkOLSR.overlayTerminal[98].loopbackInterface.lo 	droppedPkBitError:count 	0
attr interpolationmode  none
attr source  dropPkBitError
attr title  "packets dropped/bit error, count"
scalar WirelessUnderlayNetworkOLSR.overlayTerminal[98].loopbackInterface.lo 	droppedPkBitError:sum(packetBytes) 	0
attr interpolationmode  none
attr source  dropPkBitError
attr title  "packets dropped/bit error, sum(packetBytes)"
scalar WirelessUnderlayNetworkOLSR.overlayTerminal[99].udp 	droppedPkBadChecksum:count 	0
attr interpolationmode  none
attr title  "packets dropped (checksum error), count"
scalar WirelessUnderlayNetworkOLSR.overlayTerminal[99].udp 	droppedPkWrongPort:count 	0
attr interpolationmode  none
attr title  "packets dropped (wrong port), count"
scalar WirelessUnderlayNetworkOLSR.overlayTerminal[99].udp 	passedUpPk:count 	15
attr interpolationmode  none
attr title  "packets passed up, count"
scalar WirelessUnderlayNetworkOLSR.overlayTerminal[99].udp 	sentPk:count 	15
attr interpolationmode  none
attr source  sentPk
attr title  "packets sent, count"
scalar WirelessUnderlayNetworkOLSR.overlayTerminal[99].udp 	sentPk:sum(packetBytes) 	2490
attr interpolationmode  none
attr source  sentPk
attr title  "packets sent, sum(packetBytes)"
scalar WirelessUnderlayNetworkOLSR.overlayTerminal[99].udp 	rcvdPk:count 	15
attr interpolationmode  none
attr source  rcvdPk
attr title  "packets received, count"
scalar WirelessUnderlayNetworkOLSR.overlayTerminal[99].udp 	rcvdPk:sum(packetBytes) 	2490
attr interpolationmode  none
attr source  rcvdPk
attr title  "packets received, sum(packetBytes)"
scalar WirelessUnderlayNetworkOLSR.overlayTerminal[99].networkLayer.arp 	initiatedARPResolution:count 	0
attr title  "ARP initiated resolutions, count"
scalar WirelessUnderlayNetworkOLSR.overlayTerminal[99].networkLayer.arp 	sentReply:count 	0
attr title  "ARP replies sent, count"
scalar WirelessUnderlayNetworkOLSR.overlayTerminal[99].networkLayer.arp 	sentReq:count 	0
attr title  "ARP request sent, count"
scalar WirelessUnderlayNetworkOLSR.overlayTerminal[99].networkLayer.arp 	failedARPResolution:count 	0
attr title  "ARP failed resolutions, count"
scalar WirelessUnderlayNetworkOLSR.overlayTerminal[99].networkLayer.arp 	completedARPResolution:count 	0
attr title  "ARP completed resolutions, count"
statistic WirelessUnderlayNetworkOLSR.overlayTerminal[99].wlan[0].queue 	queueingTime:histogram
field count 0
field mean nan
field stddev nan
field sum 0
field sqrsum 0
field min nan
field max nan
attr interpolationmode  none
attr title  "queueing time, histogram"
bin	-INF	0
bin	-0.5	0
bin	-0.46666666666667	0
bin	-0.43333333333333	0
bin	-0.4	0
bin	-0.36666666666667	0
bin	-0.33333333333333	0
bin	-0.3	0
bin	-0.26666666666667	0
bin	-0.23333333333333	0
bin	-0.2	0
bin	-0.16666666666667	0
bin	-0.13333333333333	0
bin	-0.1	0
bin	-0.066666666666667	0
bin	-0.033333333333333	0
bin	-6.9388939039072e-018	0
bin	0.033333333333333	0
bin	0.066666666666667	0
bin	0.1	0
bin	0.13333333333333	0
bin	0.16666666666667	0
bin	0.2	0
bin	0.23333333333333	0
bin	0.26666666666667	0
bin	0.3	0
bin	0.33333333333333	0
bin	0.36666666666667	0
bin	0.4	0
bin	0.43333333333333	0
bin	0.46666666666667	0
bin	0.5	0
scalar WirelessUnderlayNetworkOLSR.overlayTerminal[99].wlan[0].queue 	dropPk:count 	0
attr interpolationmode  none
attr source  dropPkByQueue
attr title  "dropped packets, count"
scalar WirelessUnderlayNetworkOLSR.overlayTerminal[99].wlan[0].queue 	dropPk:sum(packetBytes) 	0
attr interpolationmode  none
attr source  dropPkByQueue
attr title  "dropped packets, sum(packetBytes)"
scalar WirelessUnderlayNetworkOLSR.overlayTerminal[99].wlan[0].queue 	queueLength:max 	0
attr interpolationmode  sample-hold
attr title  "queue length, max"
scalar WirelessUnderlayNetworkOLSR.overlayTerminal[99].wlan[0].queue 	queueLength:timeavg 	0
attr interpolationmode  sample-hold
attr title  "queue length, timeavg"
scalar WirelessUnderlayNetworkOLSR.overlayTerminal[99].wlan[0].queue 	rcvdPk:count 	0
attr interpolationmode  none
attr title  "received packets, count"
scalar WirelessUnderlayNetworkOLSR.overlayTerminal[99].wlan[0].queue 	rcvdPk:sum(packetBytes) 	0
attr interpolationmode  none
attr title  "received packets, sum(packetBytes)"
scalar WirelessUnderlayNetworkOLSR.overlayTerminal[99].wlan[0].mac 	droppedPkNotForUs:count 	0
attr interpolationmode  none
attr source  dropPkNotForUs
attr title  "packets dropped/not for us, count"
scalar WirelessUnderlayNetworkOLSR.overlayTerminal[99].wlan[0].mac 	droppedPkNotForUs:sum(packetBytes) 	0
attr interpolationmode  none
attr source  dropPkNotForUs
attr title  "packets dropped/not for us, sum(packetBytes)"
scalar WirelessUnderlayNetworkOLSR.overlayTerminal[99].wlan[0].mac 	rcvdPkFromHL:count 	0
attr interpolationmode  none
attr source  packetReceivedFromUpper
attr title  "packets received from higher layer, count"
scalar WirelessUnderlayNetworkOLSR.overlayTerminal[99].wlan[0].mac 	rcvdPkFromHL:sum(packetBytes) 	0
attr interpolationmode  none
attr source  packetReceivedFromUpper
attr title  "packets received from higher layer, sum(packetBytes)"
scalar WirelessUnderlayNetworkOLSR.overlayTerminal[99].wlan[0].mac 	passedUpPk:count 	0
attr interpolationmode  none
attr source  packetSentToUpper
attr title  "packets passed to higher layer, count"
scalar WirelessUnderlayNetworkOLSR.overlayTerminal[99].wlan[0].mac 	passedUpPk:sum(packetBytes) 	0
attr interpolationmode  none
attr source  packetSentToUpper
attr title  "packets passed to higher layer, sum(packetBytes)"
scalar WirelessUnderlayNetworkOLSR.overlayTerminal[99].wlan[0].mac 	rcvdPkFromLL:count 	0
attr interpolationmode  none
attr source  packetReceivedFromLower
attr title  "packets received from lower layer, count"
scalar WirelessUnderlayNetworkOLSR.overlayTerminal[99].wlan[0].mac 	rcvdPkFromLL:sum(packetBytes) 	0
attr interpolationmode  none
attr source  packetReceivedFromLower
attr title  "packets received from lower layer, sum(packetBytes)"
scalar WirelessUnderlayNetworkOLSR.overlayTerminal[99].wlan[0].mac 	sentDownPk:count 	0
attr interpolationmode  none
attr source  packetSentToLower
attr title  "packets sent to lower layer, count"
scalar WirelessUnderlayNetworkOLSR.overlayTerminal[99].wlan[0].mac 	sentDownPk:sum(packetBytes) 	0
attr interpolationmode  none
attr source  packetSentToLower
attr title  "packets sent to lower layer, sum(packetBytes)"
scalar WirelessUnderlayNetworkOLSR.overlayTerminal[99].loopbackInterface.lo 	rcvdPkFromHL:count 	15
attr interpolationmode  none
attr source  packetReceivedFromUpper
attr title  "packets received from higher layer, count"
scalar WirelessUnderlayNetworkOLSR.overlayTerminal[99].loopbackInterface.lo 	rcvdPkFromHL:sum(packetBytes) 	2790
attr interpolationmode  none
attr source  packetReceivedFromUpper
attr title  "packets received from higher layer, sum(packetBytes)"
scalar WirelessUnderlayNetworkOLSR.overlayTerminal[99].loopbackInterface.lo 	passedUpPk:count 	15
attr interpolationmode  none
attr source  packetSentToUpper
attr title  "packets passed to higher layer, count"
scalar WirelessUnderlayNetworkOLSR.overlayTerminal[99].loopbackInterface.lo 	passedUpPk:sum(packetBytes) 	2790
attr interpolationmode  none
attr source  packetSentToUpper
attr title  "packets passed to higher layer, sum(packetBytes)"
scalar WirelessUnderlayNetworkOLSR.overlayTerminal[99].loopbackInterface.lo 	droppedPkBitError:count 	0
attr interpolationmode  none
attr source  dropPkBitError
attr title  "packets dropped/bit error, count"
scalar WirelessUnderlayNetworkOLSR.overlayTerminal[99].loopbackInterface.lo 	droppedPkBitError:sum(packetBytes) 	0
attr interpolationmode  none
attr source  dropPkBitError
attr title  "packets dropped/bit error, sum(packetBytes)"
scalar WirelessUnderlayNetworkOLSR.globalObserver.globalStatistics 	"GlobalStatistics: Simulation Time" 	1000
scalar WirelessUnderlayNetworkOLSR.globalObserver.globalStatistics 	"BaseApp (bootstrapList): Received Bytes/s from Overlay.mean" 	0
scalar WirelessUnderlayNetworkOLSR.globalObserver.globalStatistics 	"BaseApp (bootstrapList): Received Bytes/s from UDP.mean" 	0
scalar WirelessUnderlayNetworkOLSR.globalObserver.globalStatistics 	"BaseApp (bootstrapList): Received Messages/s from Overlay.mean" 	0
scalar WirelessUnderlayNetworkOLSR.globalObserver.globalStatistics 	"BaseApp (bootstrapList): Received Messages/s from UDP.mean" 	0
scalar WirelessUnderlayNetworkOLSR.globalObserver.globalStatistics 	"BaseApp (bootstrapList): Sent Bytes/s to Overlay.mean" 	0
scalar WirelessUnderlayNetworkOLSR.globalObserver.globalStatistics 	"BaseApp (bootstrapList): Sent Bytes/s to UDP.mean" 	0
scalar WirelessUnderlayNetworkOLSR.globalObserver.globalStatistics 	"BaseApp (bootstrapList): Sent Messages/s to Overlay.mean" 	0
scalar WirelessUnderlayNetworkOLSR.globalObserver.globalStatistics 	"BaseApp (bootstrapList): Sent Messages/s to UDP.mean" 	0
scalar WirelessUnderlayNetworkOLSR.globalObserver.globalStatistics 	"BaseApp (kbrTestApp): Received Bytes/s from Overlay.mean" 	1.6590494815839
scalar WirelessUnderlayNetworkOLSR.globalObserver.globalStatistics 	"BaseApp (kbrTestApp): Received Bytes/s from UDP.mean" 	0
scalar WirelessUnderlayNetworkOLSR.globalObserver.globalStatistics 	"BaseApp (kbrTestApp): Received Messages/s from Overlay.mean" 	0.016590494815839
scalar WirelessUnderlayNetworkOLSR.globalObserver.globalStatistics 	"BaseApp (kbrTestApp): Received Messages/s from UDP.mean" 	0
scalar WirelessUnderlayNetworkOLSR.globalObserver.globalStatistics 	"BaseApp (kbrTestApp): Sent Bytes/s to Overlay.mean" 	1.6590494815839
scalar WirelessUnderlayNetworkOLSR.globalObserver.globalStatistics 	"BaseApp (kbrTestApp): Sent Bytes/s to UDP.mean" 	0
scalar WirelessUnderlayNetworkOLSR.globalObserver.globalStatistics 	"BaseApp (kbrTestApp): Sent Messages/s to Overlay.mean" 	0.016590494815839
scalar WirelessUnderlayNetworkOLSR.globalObserver.globalStatistics 	"BaseApp (kbrTestApp): Sent Messages/s to UDP.mean" 	0
scalar WirelessUnderlayNetworkOLSR.globalObserver.globalStatistics 	"BaseApp (neighborCache): Received Bytes/s from Overlay.mean" 	0
scalar WirelessUnderlayNetworkOLSR.globalObserver.globalStatistics 	"BaseApp (neighborCache): Received Bytes/s from UDP.mean" 	0
scalar WirelessUnderlayNetworkOLSR.globalObserver.globalStatistics 	"BaseApp (neighborCache): Received Messages/s from Overlay.mean" 	0
scalar WirelessUnderlayNetworkOLSR.globalObserver.globalStatistics 	"BaseApp (neighborCache): Received Messages/s from UDP.mean" 	0
scalar WirelessUnderlayNetworkOLSR.globalObserver.globalStatistics 	"BaseApp (neighborCache): Sent Bytes/s to Overlay.mean" 	0
scalar WirelessUnderlayNetworkOLSR.globalObserver.globalStatistics 	"BaseApp (neighborCache): Sent Bytes/s to UDP.mean" 	0
scalar WirelessUnderlayNetworkOLSR.globalObserver.globalStatistics 	"BaseApp (neighborCache): Sent Messages/s to Overlay.mean" 	0
scalar WirelessUnderlayNetworkOLSR.globalObserver.globalStatistics 	"BaseApp (neighborCache): Sent Messages/s to UDP.mean" 	0
scalar WirelessUnderlayNetworkOLSR.globalObserver.globalStatistics 	"BaseApp (tier2): Received Bytes/s from Overlay.mean" 	0
scalar WirelessUnderlayNetworkOLSR.globalObserver.globalStatistics 	"BaseApp (tier2): Received Bytes/s from UDP.mean" 	0
scalar WirelessUnderlayNetworkOLSR.globalObserver.globalStatistics 	"BaseApp (tier2): Received Messages/s from Overlay.mean" 	0
scalar WirelessUnderlayNetworkOLSR.globalObserver.globalStatistics 	"BaseApp (tier2): Received Messages/s from UDP.mean" 	0
scalar WirelessUnderlayNetworkOLSR.globalObserver.globalStatistics 	"BaseApp (tier2): Sent Bytes/s to Overlay.mean" 	0
scalar WirelessUnderlayNetworkOLSR.globalObserver.globalStatistics 	"BaseApp (tier2): Sent Bytes/s to UDP.mean" 	0
scalar WirelessUnderlayNetworkOLSR.globalObserver.globalStatistics 	"BaseApp (tier2): Sent Messages/s to Overlay.mean" 	0
scalar WirelessUnderlayNetworkOLSR.globalObserver.globalStatistics 	"BaseApp (tier2): Sent Messages/s to UDP.mean" 	0
scalar WirelessUnderlayNetworkOLSR.globalObserver.globalStatistics 	"BaseApp (tier3): Received Bytes/s from Overlay.mean" 	0
scalar WirelessUnderlayNetworkOLSR.globalObserver.globalStatistics 	"BaseApp (tier3): Received Bytes/s from UDP.mean" 	0
scalar WirelessUnderlayNetworkOLSR.globalObserver.globalStatistics 	"BaseApp (tier3): Received Messages/s from Overlay.mean" 	0
scalar WirelessUnderlayNetworkOLSR.globalObserver.globalStatistics 	"BaseApp (tier3): Received Messages/s from UDP.mean" 	0
scalar WirelessUnderlayNetworkOLSR.globalObserver.globalStatistics 	"BaseApp (tier3): Sent Bytes/s to Overlay.mean" 	0
scalar WirelessUnderlayNetworkOLSR.globalObserver.globalStatistics 	"BaseApp (tier3): Sent Bytes/s to UDP.mean" 	0
scalar WirelessUnderlayNetworkOLSR.globalObserver.globalStatistics 	"BaseApp (tier3): Sent Messages/s to Overlay.mean" 	0
scalar WirelessUnderlayNetworkOLSR.globalObserver.globalStatistics 	"BaseApp (tier3): Sent Messages/s to UDP.mean" 	0
scalar WirelessUnderlayNetworkOLSR.globalObserver.globalStatistics 	"BaseOverlay: Dropped Bytes/s.mean" 	0
scalar WirelessUnderlayNetworkOLSR.globalObserver.globalStatistics 	"BaseOverlay: Dropped Messages/s.mean" 	0
scalar WirelessUnderlayNetworkOLSR.globalObserver.globalStatistics 	"BaseOverlay: Forwarded App Data Bytes/s.mean" 	0
scalar WirelessUnderlayNetworkOLSR.globalObserver.globalStatistics 	"BaseOverlay: Forwarded App Data Messages/s.mean" 	0
scalar WirelessUnderlayNetworkOLSR.globalObserver.globalStatistics 	"BaseOverlay: Forwarded App Lookup Bytes/s.mean" 	0
scalar WirelessUnderlayNetworkOLSR.globalObserver.globalStatistics 	"BaseOverlay: Forwarded App Lookup Messages/s.mean" 	0
scalar WirelessUnderlayNetworkOLSR.globalObserver.globalStatistics 	"BaseOverlay: Forwarded Maintenance Bytes/s.mean" 	0
scalar WirelessUnderlayNetworkOLSR.globalObserver.globalStatistics 	"BaseOverlay: Forwarded Maintenance Messages/s.mean" 	0
scalar WirelessUnderlayNetworkOLSR.globalObserver.globalStatistics 	"BaseOverlay: Forwarded Total Bytes/s.mean" 	0
scalar WirelessUnderlayNetworkOLSR.globalObserver.globalStatistics 	"BaseOverlay: Forwarded Total Messages/s.mean" 	0
scalar WirelessUnderlayNetworkOLSR.globalObserver.globalStatistics 	"BaseOverlay: Join Retries.mean" 	1
scalar WirelessUnderlayNetworkOLSR.globalObserver.globalStatistics 	"BaseOverlay: Measured Session Time.mean" 	950.32364344154
scalar WirelessUnderlayNetworkOLSR.globalObserver.globalStatistics 	"BaseOverlay: Received App Data Bytes/s.mean" 	0
scalar WirelessUnderlayNetworkOLSR.globalObserver.globalStatistics 	"BaseOverlay: Received App Data Messages/s.mean" 	0
scalar WirelessUnderlayNetworkOLSR.globalObserver.globalStatistics 	"BaseOverlay: Received App Lookup Bytes/s.mean" 	0
scalar WirelessUnderlayNetworkOLSR.globalObserver.globalStatistics 	"BaseOverlay: Received App Lookup Messages/s.mean" 	0
scalar WirelessUnderlayNetworkOLSR.globalObserver.globalStatistics 	"BaseOverlay: Received Maintenance Bytes/s.mean" 	0
scalar WirelessUnderlayNetworkOLSR.globalObserver.globalStatistics 	"BaseOverlay: Received Maintenance Messages/s.mean" 	0
scalar WirelessUnderlayNetworkOLSR.globalObserver.globalStatistics 	"BaseOverlay: Received Total Bytes/s.mean" 	0
scalar WirelessUnderlayNetworkOLSR.globalObserver.globalStatistics 	"BaseOverlay: Received Total Messages/s.mean" 	0
scalar WirelessUnderlayNetworkOLSR.globalObserver.globalStatistics 	"BaseOverlay: Sent App Data Bytes/s.mean" 	0
scalar WirelessUnderlayNetworkOLSR.globalObserver.globalStatistics 	"BaseOverlay: Sent App Data Messages/s.mean" 	0
scalar WirelessUnderlayNetworkOLSR.globalObserver.globalStatistics 	"BaseOverlay: Sent App Lookup Bytes/s.mean" 	0
scalar WirelessUnderlayNetworkOLSR.globalObserver.globalStatistics 	"BaseOverlay: Sent App Lookup Messages/s.mean" 	0
scalar WirelessUnderlayNetworkOLSR.globalObserver.globalStatistics 	"BaseOverlay: Sent FailedNode Bytes/s.mean" 	0
scalar WirelessUnderlayNetworkOLSR.globalObserver.globalStatistics 	"BaseOverlay: Sent FailedNode Messages/s.mean" 	0
scalar WirelessUnderlayNetworkOLSR.globalObserver.globalStatistics 	"BaseOverlay: Sent FailedNodeResponse Bytes/s.mean" 	0
scalar WirelessUnderlayNetworkOLSR.globalObserver.globalStatistics 	"BaseOverlay: Sent FailedNodeResponse Messages/s.mean" 	0
scalar WirelessUnderlayNetworkOLSR.globalObserver.globalStatistics 	"BaseOverlay: Sent FindNode Bytes/s.mean" 	0
scalar WirelessUnderlayNetworkOLSR.globalObserver.globalStatistics 	"BaseOverlay: Sent FindNode Messages/s.mean" 	0
scalar WirelessUnderlayNetworkOLSR.globalObserver.globalStatistics 	"BaseOverlay: Sent FindNodeResponse Bytes/s.mean" 	0
scalar WirelessUnderlayNetworkOLSR.globalObserver.globalStatistics 	"BaseOverlay: Sent FindNodeResponse Messages/s.mean" 	0
scalar WirelessUnderlayNetworkOLSR.globalObserver.globalStatistics 	"BaseOverlay: Sent Maintenance Bytes/s.mean" 	0
scalar WirelessUnderlayNetworkOLSR.globalObserver.globalStatistics 	"BaseOverlay: Sent Maintenance Messages/s.mean" 	0
scalar WirelessUnderlayNetworkOLSR.globalObserver.globalStatistics 	"BaseOverlay: Sent Ping Bytes/s.mean" 	0
scalar WirelessUnderlayNetworkOLSR.globalObserver.globalStatistics 	"BaseOverlay: Sent Ping Messages/s.mean" 	0
scalar WirelessUnderlayNetworkOLSR.globalObserver.globalStatistics 	"BaseOverlay: Sent Ping Response Bytes/s.mean" 	0
scalar WirelessUnderlayNetworkOLSR.globalObserver.globalStatistics 	"BaseOverlay: Sent Ping Response Messages/s.mean" 	0
scalar WirelessUnderlayNetworkOLSR.globalObserver.globalStatistics 	"BaseOverlay: Sent Total Bytes/s.mean" 	0
scalar WirelessUnderlayNetworkOLSR.globalObserver.globalStatistics 	"BaseOverlay: Sent Total Messages/s.mean" 	0
scalar WirelessUnderlayNetworkOLSR.globalObserver.globalStatistics 	"KBRTestApp: One-way Delivered Bytes/s.mean" 	1.6590494815839
scalar WirelessUnderlayNetworkOLSR.globalObserver.globalStatistics 	"KBRTestApp: One-way Delivered Messages/s.mean" 	0.016590494815839
scalar WirelessUnderlayNetworkOLSR.globalObserver.globalStatistics 	"KBRTestApp: One-way Delivery Ratio.mean" 	1
scalar WirelessUnderlayNetworkOLSR.globalObserver.globalStatistics 	"KBRTestApp: One-way Dropped Bytes/s.mean" 	0
scalar WirelessUnderlayNetworkOLSR.globalObserver.globalStatistics 	"KBRTestApp: One-way Dropped Messages/s.mean" 	0
scalar WirelessUnderlayNetworkOLSR.globalObserver.globalStatistics 	"Kademlia: Bucket Refreshes/s.mean" 	0
scalar WirelessUnderlayNetworkOLSR.globalObserver.globalStatistics 	"Kademlia: Nodes replaced in buckets/s.mean" 	0
scalar WirelessUnderlayNetworkOLSR.globalObserver.globalStatistics 	"Kademlia: Sibling Table Refreshes/s.mean" 	1.1097320947049e-005
scalar WirelessUnderlayNetworkOLSR.globalObserver.globalStatistics 	"Vector: GlobalNodeList: Number of nodes.mean" 	100
scalar WirelessUnderlayNetworkOLSR.globalObserver.globalStatistics 	"Vector: KBRTestApp: One-way Hop Count.mean" 	0
scalar WirelessUnderlayNetworkOLSR.globalObserver.globalStatistics 	"Vector: KBRTestApp: One-way Latency.mean" 	0
