version 2
run MACARON-Nodes-80-0-20220603-23:17:45-8492
attr configname MACARON-Nodes-80
attr datetime 20220603-23:17:45
attr experiment MACARON-Nodes-80
attr inifile omnetpp.ini
attr iterationvars ""
attr iterationvars2 $repetition=0
attr measurement ""
attr network oversim.underlay.wirelessunderlay.WirelessUnderlayNetworkOLSR
attr processid 8492
attr repetition 0
attr replication #0
attr resultdir results
attr runnumber 0
attr seedset 0

scalar WirelessUnderlayNetworkOLSR.underlayConfigurator 	"Terminals added" 	17
scalar WirelessUnderlayNetworkOLSR.underlayConfigurator 	"Terminals removed" 	0
scalar WirelessUnderlayNetworkOLSR.overlayTerminal[0].udp 	droppedPkBadChecksum:count 	0
attr interpolationmode  none
attr title  "packets dropped (checksum error), count"
scalar WirelessUnderlayNetworkOLSR.overlayTerminal[0].udp 	droppedPkWrongPort:count 	0
attr interpolationmode  none
attr title  "packets dropped (wrong port), count"
scalar WirelessUnderlayNetworkOLSR.overlayTerminal[0].udp 	passedUpPk:count 	0
attr interpolationmode  none
attr title  "packets passed up, count"
scalar WirelessUnderlayNetworkOLSR.overlayTerminal[0].udp 	sentPk:count 	0
attr interpolationmode  none
attr source  sentPk
attr title  "packets sent, count"
scalar WirelessUnderlayNetworkOLSR.overlayTerminal[0].udp 	sentPk:sum(packetBytes) 	0
attr interpolationmode  none
attr source  sentPk
attr title  "packets sent, sum(packetBytes)"
scalar WirelessUnderlayNetworkOLSR.overlayTerminal[0].udp 	rcvdPk:count 	0
attr interpolationmode  none
attr source  rcvdPk
attr title  "packets received, count"
scalar WirelessUnderlayNetworkOLSR.overlayTerminal[0].udp 	rcvdPk:sum(packetBytes) 	0
attr interpolationmode  none
attr source  rcvdPk
attr title  "packets received, sum(packetBytes)"
scalar WirelessUnderlayNetworkOLSR.overlayTerminal[0].networkLayer.arp 	initiatedARPResolution:count 	0
attr title  "ARP initiated resolutions, count"
scalar WirelessUnderlayNetworkOLSR.overlayTerminal[0].networkLayer.arp 	sentReply:count 	0
attr title  "ARP replies sent, count"
scalar WirelessUnderlayNetworkOLSR.overlayTerminal[0].networkLayer.arp 	sentReq:count 	0
attr title  "ARP request sent, count"
scalar WirelessUnderlayNetworkOLSR.overlayTerminal[0].networkLayer.arp 	failedARPResolution:count 	0
attr title  "ARP failed resolutions, count"
scalar WirelessUnderlayNetworkOLSR.overlayTerminal[0].networkLayer.arp 	completedARPResolution:count 	0
attr title  "ARP completed resolutions, count"
statistic WirelessUnderlayNetworkOLSR.overlayTerminal[0].wlan[0].queue 	queueingTime:histogram
field count 12
field mean 0
field stddev 0
field sum 0
field sqrsum 0
field min 0
field max 0
attr interpolationmode  none
attr title  "queueing time, histogram"
bin	-INF	0
bin	-0.5	0
bin	-0.46666666666667	0
bin	-0.43333333333333	0
bin	-0.4	0
bin	-0.36666666666667	0
bin	-0.33333333333333	0
bin	-0.3	0
bin	-0.26666666666667	0
bin	-0.23333333333333	0
bin	-0.2	0
bin	-0.16666666666667	0
bin	-0.13333333333333	0
bin	-0.1	0
bin	-0.066666666666667	0
bin	-0.033333333333333	0
bin	-6.9388939039072e-018	12
bin	0.033333333333333	0
bin	0.066666666666667	0
bin	0.1	0
bin	0.13333333333333	0
bin	0.16666666666667	0
bin	0.2	0
bin	0.23333333333333	0
bin	0.26666666666667	0
bin	0.3	0
bin	0.33333333333333	0
bin	0.36666666666667	0
bin	0.4	0
bin	0.43333333333333	0
bin	0.46666666666667	0
bin	0.5	0
scalar WirelessUnderlayNetworkOLSR.overlayTerminal[0].wlan[0].queue 	dropPk:count 	0
attr interpolationmode  none
attr source  dropPkByQueue
attr title  "dropped packets, count"
scalar WirelessUnderlayNetworkOLSR.overlayTerminal[0].wlan[0].queue 	dropPk:sum(packetBytes) 	0
attr interpolationmode  none
attr source  dropPkByQueue
attr title  "dropped packets, sum(packetBytes)"
scalar WirelessUnderlayNetworkOLSR.overlayTerminal[0].wlan[0].queue 	queueLength:max 	0
attr interpolationmode  sample-hold
attr title  "queue length, max"
scalar WirelessUnderlayNetworkOLSR.overlayTerminal[0].wlan[0].queue 	queueLength:timeavg 	0
attr interpolationmode  sample-hold
attr title  "queue length, timeavg"
scalar WirelessUnderlayNetworkOLSR.overlayTerminal[0].wlan[0].queue 	rcvdPk:count 	12
attr interpolationmode  none
attr title  "received packets, count"
scalar WirelessUnderlayNetworkOLSR.overlayTerminal[0].wlan[0].queue 	rcvdPk:sum(packetBytes) 	592
attr interpolationmode  none
attr title  "received packets, sum(packetBytes)"
scalar WirelessUnderlayNetworkOLSR.overlayTerminal[0].wlan[0].mac 	droppedPkNotForUs:count 	0
attr interpolationmode  none
attr source  dropPkNotForUs
attr title  "packets dropped/not for us, count"
scalar WirelessUnderlayNetworkOLSR.overlayTerminal[0].wlan[0].mac 	droppedPkNotForUs:sum(packetBytes) 	0
attr interpolationmode  none
attr source  dropPkNotForUs
attr title  "packets dropped/not for us, sum(packetBytes)"
scalar WirelessUnderlayNetworkOLSR.overlayTerminal[0].wlan[0].mac 	rcvdPkFromHL:count 	12
attr interpolationmode  none
attr source  packetReceivedFromUpper
attr title  "packets received from higher layer, count"
scalar WirelessUnderlayNetworkOLSR.overlayTerminal[0].wlan[0].mac 	rcvdPkFromHL:sum(packetBytes) 	592
attr interpolationmode  none
attr source  packetReceivedFromUpper
attr title  "packets received from higher layer, sum(packetBytes)"
scalar WirelessUnderlayNetworkOLSR.overlayTerminal[0].wlan[0].mac 	passedUpPk:count 	2
attr interpolationmode  none
attr source  packetSentToUpper
attr title  "packets passed to higher layer, count"
scalar WirelessUnderlayNetworkOLSR.overlayTerminal[0].wlan[0].mac 	passedUpPk:sum(packetBytes) 	108
attr interpolationmode  none
attr source  packetSentToUpper
attr title  "packets passed to higher layer, sum(packetBytes)"
scalar WirelessUnderlayNetworkOLSR.overlayTerminal[0].wlan[0].mac 	rcvdPkFromLL:count 	2
attr interpolationmode  none
attr source  packetReceivedFromLower
attr title  "packets received from lower layer, count"
scalar WirelessUnderlayNetworkOLSR.overlayTerminal[0].wlan[0].mac 	rcvdPkFromLL:sum(packetBytes) 	128
attr interpolationmode  none
attr source  packetReceivedFromLower
attr title  "packets received from lower layer, sum(packetBytes)"
scalar WirelessUnderlayNetworkOLSR.overlayTerminal[0].wlan[0].mac 	sentDownPk:count 	12
attr interpolationmode  none
attr source  packetSentToLower
attr title  "packets sent to lower layer, count"
scalar WirelessUnderlayNetworkOLSR.overlayTerminal[0].wlan[0].mac 	sentDownPk:sum(packetBytes) 	712
attr interpolationmode  none
attr source  packetSentToLower
attr title  "packets sent to lower layer, sum(packetBytes)"
scalar WirelessUnderlayNetworkOLSR.overlayTerminal[0].loopbackInterface.lo 	rcvdPkFromHL:count 	0
attr interpolationmode  none
attr source  packetReceivedFromUpper
attr title  "packets received from higher layer, count"
scalar WirelessUnderlayNetworkOLSR.overlayTerminal[0].loopbackInterface.lo 	rcvdPkFromHL:sum(packetBytes) 	0
attr interpolationmode  none
attr source  packetReceivedFromUpper
attr title  "packets received from higher layer, sum(packetBytes)"
scalar WirelessUnderlayNetworkOLSR.overlayTerminal[0].loopbackInterface.lo 	passedUpPk:count 	0
attr interpolationmode  none
attr source  packetSentToUpper
attr title  "packets passed to higher layer, count"
scalar WirelessUnderlayNetworkOLSR.overlayTerminal[0].loopbackInterface.lo 	passedUpPk:sum(packetBytes) 	0
attr interpolationmode  none
attr source  packetSentToUpper
attr title  "packets passed to higher layer, sum(packetBytes)"
scalar WirelessUnderlayNetworkOLSR.overlayTerminal[0].loopbackInterface.lo 	droppedPkBitError:count 	0
attr interpolationmode  none
attr source  dropPkBitError
attr title  "packets dropped/bit error, count"
scalar WirelessUnderlayNetworkOLSR.overlayTerminal[0].loopbackInterface.lo 	droppedPkBitError:sum(packetBytes) 	0
attr interpolationmode  none
attr source  dropPkBitError
attr title  "packets dropped/bit error, sum(packetBytes)"
scalar WirelessUnderlayNetworkOLSR.overlayTerminal[1].udp 	droppedPkBadChecksum:count 	0
attr interpolationmode  none
attr title  "packets dropped (checksum error), count"
scalar WirelessUnderlayNetworkOLSR.overlayTerminal[1].udp 	droppedPkWrongPort:count 	0
attr interpolationmode  none
attr title  "packets dropped (wrong port), count"
scalar WirelessUnderlayNetworkOLSR.overlayTerminal[1].udp 	passedUpPk:count 	0
attr interpolationmode  none
attr title  "packets passed up, count"
scalar WirelessUnderlayNetworkOLSR.overlayTerminal[1].udp 	sentPk:count 	0
attr interpolationmode  none
attr source  sentPk
attr title  "packets sent, count"
scalar WirelessUnderlayNetworkOLSR.overlayTerminal[1].udp 	sentPk:sum(packetBytes) 	0
attr interpolationmode  none
attr source  sentPk
attr title  "packets sent, sum(packetBytes)"
scalar WirelessUnderlayNetworkOLSR.overlayTerminal[1].udp 	rcvdPk:count 	0
attr interpolationmode  none
attr source  rcvdPk
attr title  "packets received, count"
scalar WirelessUnderlayNetworkOLSR.overlayTerminal[1].udp 	rcvdPk:sum(packetBytes) 	0
attr interpolationmode  none
attr source  rcvdPk
attr title  "packets received, sum(packetBytes)"
scalar WirelessUnderlayNetworkOLSR.overlayTerminal[1].networkLayer.arp 	initiatedARPResolution:count 	0
attr title  "ARP initiated resolutions, count"
scalar WirelessUnderlayNetworkOLSR.overlayTerminal[1].networkLayer.arp 	sentReply:count 	0
attr title  "ARP replies sent, count"
scalar WirelessUnderlayNetworkOLSR.overlayTerminal[1].networkLayer.arp 	sentReq:count 	0
attr title  "ARP request sent, count"
scalar WirelessUnderlayNetworkOLSR.overlayTerminal[1].networkLayer.arp 	failedARPResolution:count 	0
attr title  "ARP failed resolutions, count"
scalar WirelessUnderlayNetworkOLSR.overlayTerminal[1].networkLayer.arp 	completedARPResolution:count 	0
attr title  "ARP completed resolutions, count"
statistic WirelessUnderlayNetworkOLSR.overlayTerminal[1].wlan[0].queue 	queueingTime:histogram
field count 9
field mean 0
field stddev 0
field sum 0
field sqrsum 0
field min 0
field max 0
attr interpolationmode  none
attr title  "queueing time, histogram"
bin	-INF	0
bin	-0.5	0
bin	-0.46666666666667	0
bin	-0.43333333333333	0
bin	-0.4	0
bin	-0.36666666666667	0
bin	-0.33333333333333	0
bin	-0.3	0
bin	-0.26666666666667	0
bin	-0.23333333333333	0
bin	-0.2	0
bin	-0.16666666666667	0
bin	-0.13333333333333	0
bin	-0.1	0
bin	-0.066666666666667	0
bin	-0.033333333333333	0
bin	-6.9388939039072e-018	9
bin	0.033333333333333	0
bin	0.066666666666667	0
bin	0.1	0
bin	0.13333333333333	0
bin	0.16666666666667	0
bin	0.2	0
bin	0.23333333333333	0
bin	0.26666666666667	0
bin	0.3	0
bin	0.33333333333333	0
bin	0.36666666666667	0
bin	0.4	0
bin	0.43333333333333	0
bin	0.46666666666667	0
bin	0.5	0
scalar WirelessUnderlayNetworkOLSR.overlayTerminal[1].wlan[0].queue 	dropPk:count 	0
attr interpolationmode  none
attr source  dropPkByQueue
attr title  "dropped packets, count"
scalar WirelessUnderlayNetworkOLSR.overlayTerminal[1].wlan[0].queue 	dropPk:sum(packetBytes) 	0
attr interpolationmode  none
attr source  dropPkByQueue
attr title  "dropped packets, sum(packetBytes)"
scalar WirelessUnderlayNetworkOLSR.overlayTerminal[1].wlan[0].queue 	queueLength:max 	0
attr interpolationmode  sample-hold
attr title  "queue length, max"
scalar WirelessUnderlayNetworkOLSR.overlayTerminal[1].wlan[0].queue 	queueLength:timeavg 	0
attr interpolationmode  sample-hold
attr title  "queue length, timeavg"
scalar WirelessUnderlayNetworkOLSR.overlayTerminal[1].wlan[0].queue 	rcvdPk:count 	9
attr interpolationmode  none
attr title  "received packets, count"
scalar WirelessUnderlayNetworkOLSR.overlayTerminal[1].wlan[0].queue 	rcvdPk:sum(packetBytes) 	480
attr interpolationmode  none
attr title  "received packets, sum(packetBytes)"
scalar WirelessUnderlayNetworkOLSR.overlayTerminal[1].wlan[0].mac 	droppedPkNotForUs:count 	0
attr interpolationmode  none
attr source  dropPkNotForUs
attr title  "packets dropped/not for us, count"
scalar WirelessUnderlayNetworkOLSR.overlayTerminal[1].wlan[0].mac 	droppedPkNotForUs:sum(packetBytes) 	0
attr interpolationmode  none
attr source  dropPkNotForUs
attr title  "packets dropped/not for us, sum(packetBytes)"
scalar WirelessUnderlayNetworkOLSR.overlayTerminal[1].wlan[0].mac 	rcvdPkFromHL:count 	9
attr interpolationmode  none
attr source  packetReceivedFromUpper
attr title  "packets received from higher layer, count"
scalar WirelessUnderlayNetworkOLSR.overlayTerminal[1].wlan[0].mac 	rcvdPkFromHL:sum(packetBytes) 	480
attr interpolationmode  none
attr source  packetReceivedFromUpper
attr title  "packets received from higher layer, sum(packetBytes)"
scalar WirelessUnderlayNetworkOLSR.overlayTerminal[1].wlan[0].mac 	passedUpPk:count 	4
attr interpolationmode  none
attr source  packetSentToUpper
attr title  "packets passed to higher layer, count"
scalar WirelessUnderlayNetworkOLSR.overlayTerminal[1].wlan[0].mac 	passedUpPk:sum(packetBytes) 	216
attr interpolationmode  none
attr source  packetSentToUpper
attr title  "packets passed to higher layer, sum(packetBytes)"
scalar WirelessUnderlayNetworkOLSR.overlayTerminal[1].wlan[0].mac 	rcvdPkFromLL:count 	4
attr interpolationmode  none
attr source  packetReceivedFromLower
attr title  "packets received from lower layer, count"
scalar WirelessUnderlayNetworkOLSR.overlayTerminal[1].wlan[0].mac 	rcvdPkFromLL:sum(packetBytes) 	256
attr interpolationmode  none
attr source  packetReceivedFromLower
attr title  "packets received from lower layer, sum(packetBytes)"
scalar WirelessUnderlayNetworkOLSR.overlayTerminal[1].wlan[0].mac 	sentDownPk:count 	9
attr interpolationmode  none
attr source  packetSentToLower
attr title  "packets sent to lower layer, count"
scalar WirelessUnderlayNetworkOLSR.overlayTerminal[1].wlan[0].mac 	sentDownPk:sum(packetBytes) 	570
attr interpolationmode  none
attr source  packetSentToLower
attr title  "packets sent to lower layer, sum(packetBytes)"
scalar WirelessUnderlayNetworkOLSR.overlayTerminal[1].loopbackInterface.lo 	rcvdPkFromHL:count 	0
attr interpolationmode  none
attr source  packetReceivedFromUpper
attr title  "packets received from higher layer, count"
scalar WirelessUnderlayNetworkOLSR.overlayTerminal[1].loopbackInterface.lo 	rcvdPkFromHL:sum(packetBytes) 	0
attr interpolationmode  none
attr source  packetReceivedFromUpper
attr title  "packets received from higher layer, sum(packetBytes)"
scalar WirelessUnderlayNetworkOLSR.overlayTerminal[1].loopbackInterface.lo 	passedUpPk:count 	0
attr interpolationmode  none
attr source  packetSentToUpper
attr title  "packets passed to higher layer, count"
scalar WirelessUnderlayNetworkOLSR.overlayTerminal[1].loopbackInterface.lo 	passedUpPk:sum(packetBytes) 	0
attr interpolationmode  none
attr source  packetSentToUpper
attr title  "packets passed to higher layer, sum(packetBytes)"
scalar WirelessUnderlayNetworkOLSR.overlayTerminal[1].loopbackInterface.lo 	droppedPkBitError:count 	0
attr interpolationmode  none
attr source  dropPkBitError
attr title  "packets dropped/bit error, count"
scalar WirelessUnderlayNetworkOLSR.overlayTerminal[1].loopbackInterface.lo 	droppedPkBitError:sum(packetBytes) 	0
attr interpolationmode  none
attr source  dropPkBitError
attr title  "packets dropped/bit error, sum(packetBytes)"
scalar WirelessUnderlayNetworkOLSR.overlayTerminal[2].udp 	droppedPkBadChecksum:count 	0
attr interpolationmode  none
attr title  "packets dropped (checksum error), count"
scalar WirelessUnderlayNetworkOLSR.overlayTerminal[2].udp 	droppedPkWrongPort:count 	0
attr interpolationmode  none
attr title  "packets dropped (wrong port), count"
scalar WirelessUnderlayNetworkOLSR.overlayTerminal[2].udp 	passedUpPk:count 	0
attr interpolationmode  none
attr title  "packets passed up, count"
scalar WirelessUnderlayNetworkOLSR.overlayTerminal[2].udp 	sentPk:count 	0
attr interpolationmode  none
attr source  sentPk
attr title  "packets sent, count"
scalar WirelessUnderlayNetworkOLSR.overlayTerminal[2].udp 	sentPk:sum(packetBytes) 	0
attr interpolationmode  none
attr source  sentPk
attr title  "packets sent, sum(packetBytes)"
scalar WirelessUnderlayNetworkOLSR.overlayTerminal[2].udp 	rcvdPk:count 	0
attr interpolationmode  none
attr source  rcvdPk
attr title  "packets received, count"
scalar WirelessUnderlayNetworkOLSR.overlayTerminal[2].udp 	rcvdPk:sum(packetBytes) 	0
attr interpolationmode  none
attr source  rcvdPk
attr title  "packets received, sum(packetBytes)"
scalar WirelessUnderlayNetworkOLSR.overlayTerminal[2].networkLayer.arp 	initiatedARPResolution:count 	0
attr title  "ARP initiated resolutions, count"
scalar WirelessUnderlayNetworkOLSR.overlayTerminal[2].networkLayer.arp 	sentReply:count 	0
attr title  "ARP replies sent, count"
scalar WirelessUnderlayNetworkOLSR.overlayTerminal[2].networkLayer.arp 	sentReq:count 	0
attr title  "ARP request sent, count"
scalar WirelessUnderlayNetworkOLSR.overlayTerminal[2].networkLayer.arp 	failedARPResolution:count 	0
attr title  "ARP failed resolutions, count"
scalar WirelessUnderlayNetworkOLSR.overlayTerminal[2].networkLayer.arp 	completedARPResolution:count 	0
attr title  "ARP completed resolutions, count"
statistic WirelessUnderlayNetworkOLSR.overlayTerminal[2].wlan[0].queue 	queueingTime:histogram
field count 10
field mean 0
field stddev 0
field sum 0
field sqrsum 0
field min 0
field max 0
attr interpolationmode  none
attr title  "queueing time, histogram"
bin	-INF	0
bin	-0.5	0
bin	-0.46666666666667	0
bin	-0.43333333333333	0
bin	-0.4	0
bin	-0.36666666666667	0
bin	-0.33333333333333	0
bin	-0.3	0
bin	-0.26666666666667	0
bin	-0.23333333333333	0
bin	-0.2	0
bin	-0.16666666666667	0
bin	-0.13333333333333	0
bin	-0.1	0
bin	-0.066666666666667	0
bin	-0.033333333333333	0
bin	-6.9388939039072e-018	10
bin	0.033333333333333	0
bin	0.066666666666667	0
bin	0.1	0
bin	0.13333333333333	0
bin	0.16666666666667	0
bin	0.2	0
bin	0.23333333333333	0
bin	0.26666666666667	0
bin	0.3	0
bin	0.33333333333333	0
bin	0.36666666666667	0
bin	0.4	0
bin	0.43333333333333	0
bin	0.46666666666667	0
bin	0.5	0
scalar WirelessUnderlayNetworkOLSR.overlayTerminal[2].wlan[0].queue 	dropPk:count 	0
attr interpolationmode  none
attr source  dropPkByQueue
attr title  "dropped packets, count"
scalar WirelessUnderlayNetworkOLSR.overlayTerminal[2].wlan[0].queue 	dropPk:sum(packetBytes) 	0
attr interpolationmode  none
attr source  dropPkByQueue
attr title  "dropped packets, sum(packetBytes)"
scalar WirelessUnderlayNetworkOLSR.overlayTerminal[2].wlan[0].queue 	queueLength:max 	0
attr interpolationmode  sample-hold
attr title  "queue length, max"
scalar WirelessUnderlayNetworkOLSR.overlayTerminal[2].wlan[0].queue 	queueLength:timeavg 	0
attr interpolationmode  sample-hold
attr title  "queue length, timeavg"
scalar WirelessUnderlayNetworkOLSR.overlayTerminal[2].wlan[0].queue 	rcvdPk:count 	10
attr interpolationmode  none
attr title  "received packets, count"
scalar WirelessUnderlayNetworkOLSR.overlayTerminal[2].wlan[0].queue 	rcvdPk:sum(packetBytes) 	528
attr interpolationmode  none
attr title  "received packets, sum(packetBytes)"
scalar WirelessUnderlayNetworkOLSR.overlayTerminal[2].wlan[0].mac 	droppedPkNotForUs:count 	0
attr interpolationmode  none
attr source  dropPkNotForUs
attr title  "packets dropped/not for us, count"
scalar WirelessUnderlayNetworkOLSR.overlayTerminal[2].wlan[0].mac 	droppedPkNotForUs:sum(packetBytes) 	0
attr interpolationmode  none
attr source  dropPkNotForUs
attr title  "packets dropped/not for us, sum(packetBytes)"
scalar WirelessUnderlayNetworkOLSR.overlayTerminal[2].wlan[0].mac 	rcvdPkFromHL:count 	10
attr interpolationmode  none
attr source  packetReceivedFromUpper
attr title  "packets received from higher layer, count"
scalar WirelessUnderlayNetworkOLSR.overlayTerminal[2].wlan[0].mac 	rcvdPkFromHL:sum(packetBytes) 	528
attr interpolationmode  none
attr source  packetReceivedFromUpper
attr title  "packets received from higher layer, sum(packetBytes)"
scalar WirelessUnderlayNetworkOLSR.overlayTerminal[2].wlan[0].mac 	passedUpPk:count 	5
attr interpolationmode  none
attr source  packetSentToUpper
attr title  "packets passed to higher layer, count"
scalar WirelessUnderlayNetworkOLSR.overlayTerminal[2].wlan[0].mac 	passedUpPk:sum(packetBytes) 	288
attr interpolationmode  none
attr source  packetSentToUpper
attr title  "packets passed to higher layer, sum(packetBytes)"
scalar WirelessUnderlayNetworkOLSR.overlayTerminal[2].wlan[0].mac 	rcvdPkFromLL:count 	5
attr interpolationmode  none
attr source  packetReceivedFromLower
attr title  "packets received from lower layer, count"
scalar WirelessUnderlayNetworkOLSR.overlayTerminal[2].wlan[0].mac 	rcvdPkFromLL:sum(packetBytes) 	338
attr interpolationmode  none
attr source  packetReceivedFromLower
attr title  "packets received from lower layer, sum(packetBytes)"
scalar WirelessUnderlayNetworkOLSR.overlayTerminal[2].wlan[0].mac 	sentDownPk:count 	10
attr interpolationmode  none
attr source  packetSentToLower
attr title  "packets sent to lower layer, count"
scalar WirelessUnderlayNetworkOLSR.overlayTerminal[2].wlan[0].mac 	sentDownPk:sum(packetBytes) 	628
attr interpolationmode  none
attr source  packetSentToLower
attr title  "packets sent to lower layer, sum(packetBytes)"
scalar WirelessUnderlayNetworkOLSR.overlayTerminal[2].loopbackInterface.lo 	rcvdPkFromHL:count 	0
attr interpolationmode  none
attr source  packetReceivedFromUpper
attr title  "packets received from higher layer, count"
scalar WirelessUnderlayNetworkOLSR.overlayTerminal[2].loopbackInterface.lo 	rcvdPkFromHL:sum(packetBytes) 	0
attr interpolationmode  none
attr source  packetReceivedFromUpper
attr title  "packets received from higher layer, sum(packetBytes)"
scalar WirelessUnderlayNetworkOLSR.overlayTerminal[2].loopbackInterface.lo 	passedUpPk:count 	0
attr interpolationmode  none
attr source  packetSentToUpper
attr title  "packets passed to higher layer, count"
scalar WirelessUnderlayNetworkOLSR.overlayTerminal[2].loopbackInterface.lo 	passedUpPk:sum(packetBytes) 	0
attr interpolationmode  none
attr source  packetSentToUpper
attr title  "packets passed to higher layer, sum(packetBytes)"
scalar WirelessUnderlayNetworkOLSR.overlayTerminal[2].loopbackInterface.lo 	droppedPkBitError:count 	0
attr interpolationmode  none
attr source  dropPkBitError
attr title  "packets dropped/bit error, count"
scalar WirelessUnderlayNetworkOLSR.overlayTerminal[2].loopbackInterface.lo 	droppedPkBitError:sum(packetBytes) 	0
attr interpolationmode  none
attr source  dropPkBitError
attr title  "packets dropped/bit error, sum(packetBytes)"
scalar WirelessUnderlayNetworkOLSR.overlayTerminal[3].udp 	droppedPkBadChecksum:count 	0
attr interpolationmode  none
attr title  "packets dropped (checksum error), count"
scalar WirelessUnderlayNetworkOLSR.overlayTerminal[3].udp 	droppedPkWrongPort:count 	0
attr interpolationmode  none
attr title  "packets dropped (wrong port), count"
scalar WirelessUnderlayNetworkOLSR.overlayTerminal[3].udp 	passedUpPk:count 	0
attr interpolationmode  none
attr title  "packets passed up, count"
scalar WirelessUnderlayNetworkOLSR.overlayTerminal[3].udp 	sentPk:count 	0
attr interpolationmode  none
attr source  sentPk
attr title  "packets sent, count"
scalar WirelessUnderlayNetworkOLSR.overlayTerminal[3].udp 	sentPk:sum(packetBytes) 	0
attr interpolationmode  none
attr source  sentPk
attr title  "packets sent, sum(packetBytes)"
scalar WirelessUnderlayNetworkOLSR.overlayTerminal[3].udp 	rcvdPk:count 	0
attr interpolationmode  none
attr source  rcvdPk
attr title  "packets received, count"
scalar WirelessUnderlayNetworkOLSR.overlayTerminal[3].udp 	rcvdPk:sum(packetBytes) 	0
attr interpolationmode  none
attr source  rcvdPk
attr title  "packets received, sum(packetBytes)"
scalar WirelessUnderlayNetworkOLSR.overlayTerminal[3].networkLayer.arp 	initiatedARPResolution:count 	0
attr title  "ARP initiated resolutions, count"
scalar WirelessUnderlayNetworkOLSR.overlayTerminal[3].networkLayer.arp 	sentReply:count 	0
attr title  "ARP replies sent, count"
scalar WirelessUnderlayNetworkOLSR.overlayTerminal[3].networkLayer.arp 	sentReq:count 	0
attr title  "ARP request sent, count"
scalar WirelessUnderlayNetworkOLSR.overlayTerminal[3].networkLayer.arp 	failedARPResolution:count 	0
attr title  "ARP failed resolutions, count"
scalar WirelessUnderlayNetworkOLSR.overlayTerminal[3].networkLayer.arp 	completedARPResolution:count 	0
attr title  "ARP completed resolutions, count"
statistic WirelessUnderlayNetworkOLSR.overlayTerminal[3].wlan[0].queue 	queueingTime:histogram
field count 9
field mean 0
field stddev 0
field sum 0
field sqrsum 0
field min 0
field max 0
attr interpolationmode  none
attr title  "queueing time, histogram"
bin	-INF	0
bin	-0.5	0
bin	-0.46666666666667	0
bin	-0.43333333333333	0
bin	-0.4	0
bin	-0.36666666666667	0
bin	-0.33333333333333	0
bin	-0.3	0
bin	-0.26666666666667	0
bin	-0.23333333333333	0
bin	-0.2	0
bin	-0.16666666666667	0
bin	-0.13333333333333	0
bin	-0.1	0
bin	-0.066666666666667	0
bin	-0.033333333333333	0
bin	-6.9388939039072e-018	9
bin	0.033333333333333	0
bin	0.066666666666667	0
bin	0.1	0
bin	0.13333333333333	0
bin	0.16666666666667	0
bin	0.2	0
bin	0.23333333333333	0
bin	0.26666666666667	0
bin	0.3	0
bin	0.33333333333333	0
bin	0.36666666666667	0
bin	0.4	0
bin	0.43333333333333	0
bin	0.46666666666667	0
bin	0.5	0
scalar WirelessUnderlayNetworkOLSR.overlayTerminal[3].wlan[0].queue 	dropPk:count 	0
attr interpolationmode  none
attr source  dropPkByQueue
attr title  "dropped packets, count"
scalar WirelessUnderlayNetworkOLSR.overlayTerminal[3].wlan[0].queue 	dropPk:sum(packetBytes) 	0
attr interpolationmode  none
attr source  dropPkByQueue
attr title  "dropped packets, sum(packetBytes)"
scalar WirelessUnderlayNetworkOLSR.overlayTerminal[3].wlan[0].queue 	queueLength:max 	0
attr interpolationmode  sample-hold
attr title  "queue length, max"
scalar WirelessUnderlayNetworkOLSR.overlayTerminal[3].wlan[0].queue 	queueLength:timeavg 	0
attr interpolationmode  sample-hold
attr title  "queue length, timeavg"
scalar WirelessUnderlayNetworkOLSR.overlayTerminal[3].wlan[0].queue 	rcvdPk:count 	9
attr interpolationmode  none
attr title  "received packets, count"
scalar WirelessUnderlayNetworkOLSR.overlayTerminal[3].wlan[0].queue 	rcvdPk:sum(packetBytes) 	480
attr interpolationmode  none
attr title  "received packets, sum(packetBytes)"
scalar WirelessUnderlayNetworkOLSR.overlayTerminal[3].wlan[0].mac 	droppedPkNotForUs:count 	0
attr interpolationmode  none
attr source  dropPkNotForUs
attr title  "packets dropped/not for us, count"
scalar WirelessUnderlayNetworkOLSR.overlayTerminal[3].wlan[0].mac 	droppedPkNotForUs:sum(packetBytes) 	0
attr interpolationmode  none
attr source  dropPkNotForUs
attr title  "packets dropped/not for us, sum(packetBytes)"
scalar WirelessUnderlayNetworkOLSR.overlayTerminal[3].wlan[0].mac 	rcvdPkFromHL:count 	9
attr interpolationmode  none
attr source  packetReceivedFromUpper
attr title  "packets received from higher layer, count"
scalar WirelessUnderlayNetworkOLSR.overlayTerminal[3].wlan[0].mac 	rcvdPkFromHL:sum(packetBytes) 	480
attr interpolationmode  none
attr source  packetReceivedFromUpper
attr title  "packets received from higher layer, sum(packetBytes)"
scalar WirelessUnderlayNetworkOLSR.overlayTerminal[3].wlan[0].mac 	passedUpPk:count 	6
attr interpolationmode  none
attr source  packetSentToUpper
attr title  "packets passed to higher layer, count"
scalar WirelessUnderlayNetworkOLSR.overlayTerminal[3].wlan[0].mac 	passedUpPk:sum(packetBytes) 	312
attr interpolationmode  none
attr source  packetSentToUpper
attr title  "packets passed to higher layer, sum(packetBytes)"
scalar WirelessUnderlayNetworkOLSR.overlayTerminal[3].wlan[0].mac 	rcvdPkFromLL:count 	6
attr interpolationmode  none
attr source  packetReceivedFromLower
attr title  "packets received from lower layer, count"
scalar WirelessUnderlayNetworkOLSR.overlayTerminal[3].wlan[0].mac 	rcvdPkFromLL:sum(packetBytes) 	372
attr interpolationmode  none
attr source  packetReceivedFromLower
attr title  "packets received from lower layer, sum(packetBytes)"
scalar WirelessUnderlayNetworkOLSR.overlayTerminal[3].wlan[0].mac 	sentDownPk:count 	9
attr interpolationmode  none
attr source  packetSentToLower
attr title  "packets sent to lower layer, count"
scalar WirelessUnderlayNetworkOLSR.overlayTerminal[3].wlan[0].mac 	sentDownPk:sum(packetBytes) 	570
attr interpolationmode  none
attr source  packetSentToLower
attr title  "packets sent to lower layer, sum(packetBytes)"
scalar WirelessUnderlayNetworkOLSR.overlayTerminal[3].loopbackInterface.lo 	rcvdPkFromHL:count 	0
attr interpolationmode  none
attr source  packetReceivedFromUpper
attr title  "packets received from higher layer, count"
scalar WirelessUnderlayNetworkOLSR.overlayTerminal[3].loopbackInterface.lo 	rcvdPkFromHL:sum(packetBytes) 	0
attr interpolationmode  none
attr source  packetReceivedFromUpper
attr title  "packets received from higher layer, sum(packetBytes)"
scalar WirelessUnderlayNetworkOLSR.overlayTerminal[3].loopbackInterface.lo 	passedUpPk:count 	0
attr interpolationmode  none
attr source  packetSentToUpper
attr title  "packets passed to higher layer, count"
scalar WirelessUnderlayNetworkOLSR.overlayTerminal[3].loopbackInterface.lo 	passedUpPk:sum(packetBytes) 	0
attr interpolationmode  none
attr source  packetSentToUpper
attr title  "packets passed to higher layer, sum(packetBytes)"
scalar WirelessUnderlayNetworkOLSR.overlayTerminal[3].loopbackInterface.lo 	droppedPkBitError:count 	0
attr interpolationmode  none
attr source  dropPkBitError
attr title  "packets dropped/bit error, count"
scalar WirelessUnderlayNetworkOLSR.overlayTerminal[3].loopbackInterface.lo 	droppedPkBitError:sum(packetBytes) 	0
attr interpolationmode  none
attr source  dropPkBitError
attr title  "packets dropped/bit error, sum(packetBytes)"
scalar WirelessUnderlayNetworkOLSR.overlayTerminal[4].udp 	droppedPkBadChecksum:count 	0
attr interpolationmode  none
attr title  "packets dropped (checksum error), count"
scalar WirelessUnderlayNetworkOLSR.overlayTerminal[4].udp 	droppedPkWrongPort:count 	0
attr interpolationmode  none
attr title  "packets dropped (wrong port), count"
scalar WirelessUnderlayNetworkOLSR.overlayTerminal[4].udp 	passedUpPk:count 	0
attr interpolationmode  none
attr title  "packets passed up, count"
scalar WirelessUnderlayNetworkOLSR.overlayTerminal[4].udp 	sentPk:count 	0
attr interpolationmode  none
attr source  sentPk
attr title  "packets sent, count"
scalar WirelessUnderlayNetworkOLSR.overlayTerminal[4].udp 	sentPk:sum(packetBytes) 	0
attr interpolationmode  none
attr source  sentPk
attr title  "packets sent, sum(packetBytes)"
scalar WirelessUnderlayNetworkOLSR.overlayTerminal[4].udp 	rcvdPk:count 	0
attr interpolationmode  none
attr source  rcvdPk
attr title  "packets received, count"
scalar WirelessUnderlayNetworkOLSR.overlayTerminal[4].udp 	rcvdPk:sum(packetBytes) 	0
attr interpolationmode  none
attr source  rcvdPk
attr title  "packets received, sum(packetBytes)"
scalar WirelessUnderlayNetworkOLSR.overlayTerminal[4].networkLayer.arp 	initiatedARPResolution:count 	0
attr title  "ARP initiated resolutions, count"
scalar WirelessUnderlayNetworkOLSR.overlayTerminal[4].networkLayer.arp 	sentReply:count 	0
attr title  "ARP replies sent, count"
scalar WirelessUnderlayNetworkOLSR.overlayTerminal[4].networkLayer.arp 	sentReq:count 	0
attr title  "ARP request sent, count"
scalar WirelessUnderlayNetworkOLSR.overlayTerminal[4].networkLayer.arp 	failedARPResolution:count 	0
attr title  "ARP failed resolutions, count"
scalar WirelessUnderlayNetworkOLSR.overlayTerminal[4].networkLayer.arp 	completedARPResolution:count 	0
attr title  "ARP completed resolutions, count"
statistic WirelessUnderlayNetworkOLSR.overlayTerminal[4].wlan[0].queue 	queueingTime:histogram
field count 8
field mean 0
field stddev 0
field sum 0
field sqrsum 0
field min 0
field max 0
attr interpolationmode  none
attr title  "queueing time, histogram"
bin	-INF	0
bin	-0.5	0
bin	-0.46666666666667	0
bin	-0.43333333333333	0
bin	-0.4	0
bin	-0.36666666666667	0
bin	-0.33333333333333	0
bin	-0.3	0
bin	-0.26666666666667	0
bin	-0.23333333333333	0
bin	-0.2	0
bin	-0.16666666666667	0
bin	-0.13333333333333	0
bin	-0.1	0
bin	-0.066666666666667	0
bin	-0.033333333333333	0
bin	-6.9388939039072e-018	8
bin	0.033333333333333	0
bin	0.066666666666667	0
bin	0.1	0
bin	0.13333333333333	0
bin	0.16666666666667	0
bin	0.2	0
bin	0.23333333333333	0
bin	0.26666666666667	0
bin	0.3	0
bin	0.33333333333333	0
bin	0.36666666666667	0
bin	0.4	0
bin	0.43333333333333	0
bin	0.46666666666667	0
bin	0.5	0
scalar WirelessUnderlayNetworkOLSR.overlayTerminal[4].wlan[0].queue 	dropPk:count 	0
attr interpolationmode  none
attr source  dropPkByQueue
attr title  "dropped packets, count"
scalar WirelessUnderlayNetworkOLSR.overlayTerminal[4].wlan[0].queue 	dropPk:sum(packetBytes) 	0
attr interpolationmode  none
attr source  dropPkByQueue
attr title  "dropped packets, sum(packetBytes)"
scalar WirelessUnderlayNetworkOLSR.overlayTerminal[4].wlan[0].queue 	queueLength:max 	0
attr interpolationmode  sample-hold
attr title  "queue length, max"
scalar WirelessUnderlayNetworkOLSR.overlayTerminal[4].wlan[0].queue 	queueLength:timeavg 	0
attr interpolationmode  sample-hold
attr title  "queue length, timeavg"
scalar WirelessUnderlayNetworkOLSR.overlayTerminal[4].wlan[0].queue 	rcvdPk:count 	8
attr interpolationmode  none
attr title  "received packets, count"
scalar WirelessUnderlayNetworkOLSR.overlayTerminal[4].wlan[0].queue 	rcvdPk:sum(packetBytes) 	424
attr interpolationmode  none
attr title  "received packets, sum(packetBytes)"
scalar WirelessUnderlayNetworkOLSR.overlayTerminal[4].wlan[0].mac 	droppedPkNotForUs:count 	0
attr interpolationmode  none
attr source  dropPkNotForUs
attr title  "packets dropped/not for us, count"
scalar WirelessUnderlayNetworkOLSR.overlayTerminal[4].wlan[0].mac 	droppedPkNotForUs:sum(packetBytes) 	0
attr interpolationmode  none
attr source  dropPkNotForUs
attr title  "packets dropped/not for us, sum(packetBytes)"
scalar WirelessUnderlayNetworkOLSR.overlayTerminal[4].wlan[0].mac 	rcvdPkFromHL:count 	8
attr interpolationmode  none
attr source  packetReceivedFromUpper
attr title  "packets received from higher layer, count"
scalar WirelessUnderlayNetworkOLSR.overlayTerminal[4].wlan[0].mac 	rcvdPkFromHL:sum(packetBytes) 	424
attr interpolationmode  none
attr source  packetReceivedFromUpper
attr title  "packets received from higher layer, sum(packetBytes)"
scalar WirelessUnderlayNetworkOLSR.overlayTerminal[4].wlan[0].mac 	passedUpPk:count 	6
attr interpolationmode  none
attr source  packetSentToUpper
attr title  "packets passed to higher layer, count"
scalar WirelessUnderlayNetworkOLSR.overlayTerminal[4].wlan[0].mac 	passedUpPk:sum(packetBytes) 	320
attr interpolationmode  none
attr source  packetSentToUpper
attr title  "packets passed to higher layer, sum(packetBytes)"
scalar WirelessUnderlayNetworkOLSR.overlayTerminal[4].wlan[0].mac 	rcvdPkFromLL:count 	6
attr interpolationmode  none
attr source  packetReceivedFromLower
attr title  "packets received from lower layer, count"
scalar WirelessUnderlayNetworkOLSR.overlayTerminal[4].wlan[0].mac 	rcvdPkFromLL:sum(packetBytes) 	380
attr interpolationmode  none
attr source  packetReceivedFromLower
attr title  "packets received from lower layer, sum(packetBytes)"
scalar WirelessUnderlayNetworkOLSR.overlayTerminal[4].wlan[0].mac 	sentDownPk:count 	8
attr interpolationmode  none
attr source  packetSentToLower
attr title  "packets sent to lower layer, count"
scalar WirelessUnderlayNetworkOLSR.overlayTerminal[4].wlan[0].mac 	sentDownPk:sum(packetBytes) 	504
attr interpolationmode  none
attr source  packetSentToLower
attr title  "packets sent to lower layer, sum(packetBytes)"
scalar WirelessUnderlayNetworkOLSR.overlayTerminal[4].loopbackInterface.lo 	rcvdPkFromHL:count 	0
attr interpolationmode  none
attr source  packetReceivedFromUpper
attr title  "packets received from higher layer, count"
scalar WirelessUnderlayNetworkOLSR.overlayTerminal[4].loopbackInterface.lo 	rcvdPkFromHL:sum(packetBytes) 	0
attr interpolationmode  none
attr source  packetReceivedFromUpper
attr title  "packets received from higher layer, sum(packetBytes)"
scalar WirelessUnderlayNetworkOLSR.overlayTerminal[4].loopbackInterface.lo 	passedUpPk:count 	0
attr interpolationmode  none
attr source  packetSentToUpper
attr title  "packets passed to higher layer, count"
scalar WirelessUnderlayNetworkOLSR.overlayTerminal[4].loopbackInterface.lo 	passedUpPk:sum(packetBytes) 	0
attr interpolationmode  none
attr source  packetSentToUpper
attr title  "packets passed to higher layer, sum(packetBytes)"
scalar WirelessUnderlayNetworkOLSR.overlayTerminal[4].loopbackInterface.lo 	droppedPkBitError:count 	0
attr interpolationmode  none
attr source  dropPkBitError
attr title  "packets dropped/bit error, count"
scalar WirelessUnderlayNetworkOLSR.overlayTerminal[4].loopbackInterface.lo 	droppedPkBitError:sum(packetBytes) 	0
attr interpolationmode  none
attr source  dropPkBitError
attr title  "packets dropped/bit error, sum(packetBytes)"
scalar WirelessUnderlayNetworkOLSR.overlayTerminal[5].udp 	droppedPkBadChecksum:count 	0
attr interpolationmode  none
attr title  "packets dropped (checksum error), count"
scalar WirelessUnderlayNetworkOLSR.overlayTerminal[5].udp 	droppedPkWrongPort:count 	0
attr interpolationmode  none
attr title  "packets dropped (wrong port), count"
scalar WirelessUnderlayNetworkOLSR.overlayTerminal[5].udp 	passedUpPk:count 	0
attr interpolationmode  none
attr title  "packets passed up, count"
scalar WirelessUnderlayNetworkOLSR.overlayTerminal[5].udp 	sentPk:count 	0
attr interpolationmode  none
attr source  sentPk
attr title  "packets sent, count"
scalar WirelessUnderlayNetworkOLSR.overlayTerminal[5].udp 	sentPk:sum(packetBytes) 	0
attr interpolationmode  none
attr source  sentPk
attr title  "packets sent, sum(packetBytes)"
scalar WirelessUnderlayNetworkOLSR.overlayTerminal[5].udp 	rcvdPk:count 	0
attr interpolationmode  none
attr source  rcvdPk
attr title  "packets received, count"
scalar WirelessUnderlayNetworkOLSR.overlayTerminal[5].udp 	rcvdPk:sum(packetBytes) 	0
attr interpolationmode  none
attr source  rcvdPk
attr title  "packets received, sum(packetBytes)"
scalar WirelessUnderlayNetworkOLSR.overlayTerminal[5].networkLayer.arp 	initiatedARPResolution:count 	0
attr title  "ARP initiated resolutions, count"
scalar WirelessUnderlayNetworkOLSR.overlayTerminal[5].networkLayer.arp 	sentReply:count 	0
attr title  "ARP replies sent, count"
scalar WirelessUnderlayNetworkOLSR.overlayTerminal[5].networkLayer.arp 	sentReq:count 	0
attr title  "ARP request sent, count"
scalar WirelessUnderlayNetworkOLSR.overlayTerminal[5].networkLayer.arp 	failedARPResolution:count 	0
attr title  "ARP failed resolutions, count"
scalar WirelessUnderlayNetworkOLSR.overlayTerminal[5].networkLayer.arp 	completedARPResolution:count 	0
attr title  "ARP completed resolutions, count"
statistic WirelessUnderlayNetworkOLSR.overlayTerminal[5].wlan[0].queue 	queueingTime:histogram
field count 7
field mean 0
field stddev 0
field sum 0
field sqrsum 0
field min 0
field max 0
attr interpolationmode  none
attr title  "queueing time, histogram"
bin	-INF	0
bin	-0.5	0
bin	-0.46666666666667	0
bin	-0.43333333333333	0
bin	-0.4	0
bin	-0.36666666666667	0
bin	-0.33333333333333	0
bin	-0.3	0
bin	-0.26666666666667	0
bin	-0.23333333333333	0
bin	-0.2	0
bin	-0.16666666666667	0
bin	-0.13333333333333	0
bin	-0.1	0
bin	-0.066666666666667	0
bin	-0.033333333333333	0
bin	-6.9388939039072e-018	7
bin	0.033333333333333	0
bin	0.066666666666667	0
bin	0.1	0
bin	0.13333333333333	0
bin	0.16666666666667	0
bin	0.2	0
bin	0.23333333333333	0
bin	0.26666666666667	0
bin	0.3	0
bin	0.33333333333333	0
bin	0.36666666666667	0
bin	0.4	0
bin	0.43333333333333	0
bin	0.46666666666667	0
bin	0.5	0
scalar WirelessUnderlayNetworkOLSR.overlayTerminal[5].wlan[0].queue 	dropPk:count 	0
attr interpolationmode  none
attr source  dropPkByQueue
attr title  "dropped packets, count"
scalar WirelessUnderlayNetworkOLSR.overlayTerminal[5].wlan[0].queue 	dropPk:sum(packetBytes) 	0
attr interpolationmode  none
attr source  dropPkByQueue
attr title  "dropped packets, sum(packetBytes)"
scalar WirelessUnderlayNetworkOLSR.overlayTerminal[5].wlan[0].queue 	queueLength:max 	0
attr interpolationmode  sample-hold
attr title  "queue length, max"
scalar WirelessUnderlayNetworkOLSR.overlayTerminal[5].wlan[0].queue 	queueLength:timeavg 	0
attr interpolationmode  sample-hold
attr title  "queue length, timeavg"
scalar WirelessUnderlayNetworkOLSR.overlayTerminal[5].wlan[0].queue 	rcvdPk:count 	7
attr interpolationmode  none
attr title  "received packets, count"
scalar WirelessUnderlayNetworkOLSR.overlayTerminal[5].wlan[0].queue 	rcvdPk:sum(packetBytes) 	360
attr interpolationmode  none
attr title  "received packets, sum(packetBytes)"
scalar WirelessUnderlayNetworkOLSR.overlayTerminal[5].wlan[0].mac 	droppedPkNotForUs:count 	0
attr interpolationmode  none
attr source  dropPkNotForUs
attr title  "packets dropped/not for us, count"
scalar WirelessUnderlayNetworkOLSR.overlayTerminal[5].wlan[0].mac 	droppedPkNotForUs:sum(packetBytes) 	0
attr interpolationmode  none
attr source  dropPkNotForUs
attr title  "packets dropped/not for us, sum(packetBytes)"
scalar WirelessUnderlayNetworkOLSR.overlayTerminal[5].wlan[0].mac 	rcvdPkFromHL:count 	7
attr interpolationmode  none
attr source  packetReceivedFromUpper
attr title  "packets received from higher layer, count"
scalar WirelessUnderlayNetworkOLSR.overlayTerminal[5].wlan[0].mac 	rcvdPkFromHL:sum(packetBytes) 	360
attr interpolationmode  none
attr source  packetReceivedFromUpper
attr title  "packets received from higher layer, sum(packetBytes)"
scalar WirelessUnderlayNetworkOLSR.overlayTerminal[5].wlan[0].mac 	passedUpPk:count 	1
attr interpolationmode  none
attr source  packetSentToUpper
attr title  "packets passed to higher layer, count"
scalar WirelessUnderlayNetworkOLSR.overlayTerminal[5].wlan[0].mac 	passedUpPk:sum(packetBytes) 	72
attr interpolationmode  none
attr source  packetSentToUpper
attr title  "packets passed to higher layer, sum(packetBytes)"
scalar WirelessUnderlayNetworkOLSR.overlayTerminal[5].wlan[0].mac 	rcvdPkFromLL:count 	1
attr interpolationmode  none
attr source  packetReceivedFromLower
attr title  "packets received from lower layer, count"
scalar WirelessUnderlayNetworkOLSR.overlayTerminal[5].wlan[0].mac 	rcvdPkFromLL:sum(packetBytes) 	82
attr interpolationmode  none
attr source  packetReceivedFromLower
attr title  "packets received from lower layer, sum(packetBytes)"
scalar WirelessUnderlayNetworkOLSR.overlayTerminal[5].wlan[0].mac 	sentDownPk:count 	7
attr interpolationmode  none
attr source  packetSentToLower
attr title  "packets sent to lower layer, count"
scalar WirelessUnderlayNetworkOLSR.overlayTerminal[5].wlan[0].mac 	sentDownPk:sum(packetBytes) 	430
attr interpolationmode  none
attr source  packetSentToLower
attr title  "packets sent to lower layer, sum(packetBytes)"
scalar WirelessUnderlayNetworkOLSR.overlayTerminal[5].loopbackInterface.lo 	rcvdPkFromHL:count 	0
attr interpolationmode  none
attr source  packetReceivedFromUpper
attr title  "packets received from higher layer, count"
scalar WirelessUnderlayNetworkOLSR.overlayTerminal[5].loopbackInterface.lo 	rcvdPkFromHL:sum(packetBytes) 	0
attr interpolationmode  none
attr source  packetReceivedFromUpper
attr title  "packets received from higher layer, sum(packetBytes)"
scalar WirelessUnderlayNetworkOLSR.overlayTerminal[5].loopbackInterface.lo 	passedUpPk:count 	0
attr interpolationmode  none
attr source  packetSentToUpper
attr title  "packets passed to higher layer, count"
scalar WirelessUnderlayNetworkOLSR.overlayTerminal[5].loopbackInterface.lo 	passedUpPk:sum(packetBytes) 	0
attr interpolationmode  none
attr source  packetSentToUpper
attr title  "packets passed to higher layer, sum(packetBytes)"
scalar WirelessUnderlayNetworkOLSR.overlayTerminal[5].loopbackInterface.lo 	droppedPkBitError:count 	0
attr interpolationmode  none
attr source  dropPkBitError
attr title  "packets dropped/bit error, count"
scalar WirelessUnderlayNetworkOLSR.overlayTerminal[5].loopbackInterface.lo 	droppedPkBitError:sum(packetBytes) 	0
attr interpolationmode  none
attr source  dropPkBitError
attr title  "packets dropped/bit error, sum(packetBytes)"
scalar WirelessUnderlayNetworkOLSR.overlayTerminal[6].udp 	droppedPkBadChecksum:count 	0
attr interpolationmode  none
attr title  "packets dropped (checksum error), count"
scalar WirelessUnderlayNetworkOLSR.overlayTerminal[6].udp 	droppedPkWrongPort:count 	0
attr interpolationmode  none
attr title  "packets dropped (wrong port), count"
scalar WirelessUnderlayNetworkOLSR.overlayTerminal[6].udp 	passedUpPk:count 	0
attr interpolationmode  none
attr title  "packets passed up, count"
scalar WirelessUnderlayNetworkOLSR.overlayTerminal[6].udp 	sentPk:count 	0
attr interpolationmode  none
attr source  sentPk
attr title  "packets sent, count"
scalar WirelessUnderlayNetworkOLSR.overlayTerminal[6].udp 	sentPk:sum(packetBytes) 	0
attr interpolationmode  none
attr source  sentPk
attr title  "packets sent, sum(packetBytes)"
scalar WirelessUnderlayNetworkOLSR.overlayTerminal[6].udp 	rcvdPk:count 	0
attr interpolationmode  none
attr source  rcvdPk
attr title  "packets received, count"
scalar WirelessUnderlayNetworkOLSR.overlayTerminal[6].udp 	rcvdPk:sum(packetBytes) 	0
attr interpolationmode  none
attr source  rcvdPk
attr title  "packets received, sum(packetBytes)"
scalar WirelessUnderlayNetworkOLSR.overlayTerminal[6].networkLayer.arp 	initiatedARPResolution:count 	0
attr title  "ARP initiated resolutions, count"
scalar WirelessUnderlayNetworkOLSR.overlayTerminal[6].networkLayer.arp 	sentReply:count 	0
attr title  "ARP replies sent, count"
scalar WirelessUnderlayNetworkOLSR.overlayTerminal[6].networkLayer.arp 	sentReq:count 	0
attr title  "ARP request sent, count"
scalar WirelessUnderlayNetworkOLSR.overlayTerminal[6].networkLayer.arp 	failedARPResolution:count 	0
attr title  "ARP failed resolutions, count"
scalar WirelessUnderlayNetworkOLSR.overlayTerminal[6].networkLayer.arp 	completedARPResolution:count 	0
attr title  "ARP completed resolutions, count"
statistic WirelessUnderlayNetworkOLSR.overlayTerminal[6].wlan[0].queue 	queueingTime:histogram
field count 6
field mean 0
field stddev 0
field sum 0
field sqrsum 0
field min 0
field max 0
attr interpolationmode  none
attr title  "queueing time, histogram"
bin	-INF	0
bin	-0.5	0
bin	-0.46666666666667	0
bin	-0.43333333333333	0
bin	-0.4	0
bin	-0.36666666666667	0
bin	-0.33333333333333	0
bin	-0.3	0
bin	-0.26666666666667	0
bin	-0.23333333333333	0
bin	-0.2	0
bin	-0.16666666666667	0
bin	-0.13333333333333	0
bin	-0.1	0
bin	-0.066666666666667	0
bin	-0.033333333333333	0
bin	-6.9388939039072e-018	6
bin	0.033333333333333	0
bin	0.066666666666667	0
bin	0.1	0
bin	0.13333333333333	0
bin	0.16666666666667	0
bin	0.2	0
bin	0.23333333333333	0
bin	0.26666666666667	0
bin	0.3	0
bin	0.33333333333333	0
bin	0.36666666666667	0
bin	0.4	0
bin	0.43333333333333	0
bin	0.46666666666667	0
bin	0.5	0
scalar WirelessUnderlayNetworkOLSR.overlayTerminal[6].wlan[0].queue 	dropPk:count 	0
attr interpolationmode  none
attr source  dropPkByQueue
attr title  "dropped packets, count"
scalar WirelessUnderlayNetworkOLSR.overlayTerminal[6].wlan[0].queue 	dropPk:sum(packetBytes) 	0
attr interpolationmode  none
attr source  dropPkByQueue
attr title  "dropped packets, sum(packetBytes)"
scalar WirelessUnderlayNetworkOLSR.overlayTerminal[6].wlan[0].queue 	queueLength:max 	0
attr interpolationmode  sample-hold
attr title  "queue length, max"
scalar WirelessUnderlayNetworkOLSR.overlayTerminal[6].wlan[0].queue 	queueLength:timeavg 	0
attr interpolationmode  sample-hold
attr title  "queue length, timeavg"
scalar WirelessUnderlayNetworkOLSR.overlayTerminal[6].wlan[0].queue 	rcvdPk:count 	6
attr interpolationmode  none
attr title  "received packets, count"
scalar WirelessUnderlayNetworkOLSR.overlayTerminal[6].wlan[0].queue 	rcvdPk:sum(packetBytes) 	304
attr interpolationmode  none
attr title  "received packets, sum(packetBytes)"
scalar WirelessUnderlayNetworkOLSR.overlayTerminal[6].wlan[0].mac 	droppedPkNotForUs:count 	0
attr interpolationmode  none
attr source  dropPkNotForUs
attr title  "packets dropped/not for us, count"
scalar WirelessUnderlayNetworkOLSR.overlayTerminal[6].wlan[0].mac 	droppedPkNotForUs:sum(packetBytes) 	0
attr interpolationmode  none
attr source  dropPkNotForUs
attr title  "packets dropped/not for us, sum(packetBytes)"
scalar WirelessUnderlayNetworkOLSR.overlayTerminal[6].wlan[0].mac 	rcvdPkFromHL:count 	6
attr interpolationmode  none
attr source  packetReceivedFromUpper
attr title  "packets received from higher layer, count"
scalar WirelessUnderlayNetworkOLSR.overlayTerminal[6].wlan[0].mac 	rcvdPkFromHL:sum(packetBytes) 	304
attr interpolationmode  none
attr source  packetReceivedFromUpper
attr title  "packets received from higher layer, sum(packetBytes)"
scalar WirelessUnderlayNetworkOLSR.overlayTerminal[6].wlan[0].mac 	passedUpPk:count 	4
attr interpolationmode  none
attr source  packetSentToUpper
attr title  "packets passed to higher layer, count"
scalar WirelessUnderlayNetworkOLSR.overlayTerminal[6].wlan[0].mac 	passedUpPk:sum(packetBytes) 	204
attr interpolationmode  none
attr source  packetSentToUpper
attr title  "packets passed to higher layer, sum(packetBytes)"
scalar WirelessUnderlayNetworkOLSR.overlayTerminal[6].wlan[0].mac 	rcvdPkFromLL:count 	4
attr interpolationmode  none
attr source  packetReceivedFromLower
attr title  "packets received from lower layer, count"
scalar WirelessUnderlayNetworkOLSR.overlayTerminal[6].wlan[0].mac 	rcvdPkFromLL:sum(packetBytes) 	244
attr interpolationmode  none
attr source  packetReceivedFromLower
attr title  "packets received from lower layer, sum(packetBytes)"
scalar WirelessUnderlayNetworkOLSR.overlayTerminal[6].wlan[0].mac 	sentDownPk:count 	6
attr interpolationmode  none
attr source  packetSentToLower
attr title  "packets sent to lower layer, count"
scalar WirelessUnderlayNetworkOLSR.overlayTerminal[6].wlan[0].mac 	sentDownPk:sum(packetBytes) 	364
attr interpolationmode  none
attr source  packetSentToLower
attr title  "packets sent to lower layer, sum(packetBytes)"
scalar WirelessUnderlayNetworkOLSR.overlayTerminal[6].loopbackInterface.lo 	rcvdPkFromHL:count 	0
attr interpolationmode  none
attr source  packetReceivedFromUpper
attr title  "packets received from higher layer, count"
scalar WirelessUnderlayNetworkOLSR.overlayTerminal[6].loopbackInterface.lo 	rcvdPkFromHL:sum(packetBytes) 	0
attr interpolationmode  none
attr source  packetReceivedFromUpper
attr title  "packets received from higher layer, sum(packetBytes)"
scalar WirelessUnderlayNetworkOLSR.overlayTerminal[6].loopbackInterface.lo 	passedUpPk:count 	0
attr interpolationmode  none
attr source  packetSentToUpper
attr title  "packets passed to higher layer, count"
scalar WirelessUnderlayNetworkOLSR.overlayTerminal[6].loopbackInterface.lo 	passedUpPk:sum(packetBytes) 	0
attr interpolationmode  none
attr source  packetSentToUpper
attr title  "packets passed to higher layer, sum(packetBytes)"
scalar WirelessUnderlayNetworkOLSR.overlayTerminal[6].loopbackInterface.lo 	droppedPkBitError:count 	0
attr interpolationmode  none
attr source  dropPkBitError
attr title  "packets dropped/bit error, count"
scalar WirelessUnderlayNetworkOLSR.overlayTerminal[6].loopbackInterface.lo 	droppedPkBitError:sum(packetBytes) 	0
attr interpolationmode  none
attr source  dropPkBitError
attr title  "packets dropped/bit error, sum(packetBytes)"
scalar WirelessUnderlayNetworkOLSR.overlayTerminal[7].udp 	droppedPkBadChecksum:count 	0
attr interpolationmode  none
attr title  "packets dropped (checksum error), count"
scalar WirelessUnderlayNetworkOLSR.overlayTerminal[7].udp 	droppedPkWrongPort:count 	0
attr interpolationmode  none
attr title  "packets dropped (wrong port), count"
scalar WirelessUnderlayNetworkOLSR.overlayTerminal[7].udp 	passedUpPk:count 	0
attr interpolationmode  none
attr title  "packets passed up, count"
scalar WirelessUnderlayNetworkOLSR.overlayTerminal[7].udp 	sentPk:count 	0
attr interpolationmode  none
attr source  sentPk
attr title  "packets sent, count"
scalar WirelessUnderlayNetworkOLSR.overlayTerminal[7].udp 	sentPk:sum(packetBytes) 	0
attr interpolationmode  none
attr source  sentPk
attr title  "packets sent, sum(packetBytes)"
scalar WirelessUnderlayNetworkOLSR.overlayTerminal[7].udp 	rcvdPk:count 	0
attr interpolationmode  none
attr source  rcvdPk
attr title  "packets received, count"
scalar WirelessUnderlayNetworkOLSR.overlayTerminal[7].udp 	rcvdPk:sum(packetBytes) 	0
attr interpolationmode  none
attr source  rcvdPk
attr title  "packets received, sum(packetBytes)"
scalar WirelessUnderlayNetworkOLSR.overlayTerminal[7].networkLayer.arp 	initiatedARPResolution:count 	0
attr title  "ARP initiated resolutions, count"
scalar WirelessUnderlayNetworkOLSR.overlayTerminal[7].networkLayer.arp 	sentReply:count 	0
attr title  "ARP replies sent, count"
scalar WirelessUnderlayNetworkOLSR.overlayTerminal[7].networkLayer.arp 	sentReq:count 	0
attr title  "ARP request sent, count"
scalar WirelessUnderlayNetworkOLSR.overlayTerminal[7].networkLayer.arp 	failedARPResolution:count 	0
attr title  "ARP failed resolutions, count"
scalar WirelessUnderlayNetworkOLSR.overlayTerminal[7].networkLayer.arp 	completedARPResolution:count 	0
attr title  "ARP completed resolutions, count"
statistic WirelessUnderlayNetworkOLSR.overlayTerminal[7].wlan[0].queue 	queueingTime:histogram
field count 6
field mean 0
field stddev 0
field sum 0
field sqrsum 0
field min 0
field max 0
attr interpolationmode  none
attr title  "queueing time, histogram"
bin	-INF	0
bin	-0.5	0
bin	-0.46666666666667	0
bin	-0.43333333333333	0
bin	-0.4	0
bin	-0.36666666666667	0
bin	-0.33333333333333	0
bin	-0.3	0
bin	-0.26666666666667	0
bin	-0.23333333333333	0
bin	-0.2	0
bin	-0.16666666666667	0
bin	-0.13333333333333	0
bin	-0.1	0
bin	-0.066666666666667	0
bin	-0.033333333333333	0
bin	-6.9388939039072e-018	6
bin	0.033333333333333	0
bin	0.066666666666667	0
bin	0.1	0
bin	0.13333333333333	0
bin	0.16666666666667	0
bin	0.2	0
bin	0.23333333333333	0
bin	0.26666666666667	0
bin	0.3	0
bin	0.33333333333333	0
bin	0.36666666666667	0
bin	0.4	0
bin	0.43333333333333	0
bin	0.46666666666667	0
bin	0.5	0
scalar WirelessUnderlayNetworkOLSR.overlayTerminal[7].wlan[0].queue 	dropPk:count 	0
attr interpolationmode  none
attr source  dropPkByQueue
attr title  "dropped packets, count"
scalar WirelessUnderlayNetworkOLSR.overlayTerminal[7].wlan[0].queue 	dropPk:sum(packetBytes) 	0
attr interpolationmode  none
attr source  dropPkByQueue
attr title  "dropped packets, sum(packetBytes)"
scalar WirelessUnderlayNetworkOLSR.overlayTerminal[7].wlan[0].queue 	queueLength:max 	0
attr interpolationmode  sample-hold
attr title  "queue length, max"
scalar WirelessUnderlayNetworkOLSR.overlayTerminal[7].wlan[0].queue 	queueLength:timeavg 	0
attr interpolationmode  sample-hold
attr title  "queue length, timeavg"
scalar WirelessUnderlayNetworkOLSR.overlayTerminal[7].wlan[0].queue 	rcvdPk:count 	6
attr interpolationmode  none
attr title  "received packets, count"
scalar WirelessUnderlayNetworkOLSR.overlayTerminal[7].wlan[0].queue 	rcvdPk:sum(packetBytes) 	328
attr interpolationmode  none
attr title  "received packets, sum(packetBytes)"
scalar WirelessUnderlayNetworkOLSR.overlayTerminal[7].wlan[0].mac 	droppedPkNotForUs:count 	0
attr interpolationmode  none
attr source  dropPkNotForUs
attr title  "packets dropped/not for us, count"
scalar WirelessUnderlayNetworkOLSR.overlayTerminal[7].wlan[0].mac 	droppedPkNotForUs:sum(packetBytes) 	0
attr interpolationmode  none
attr source  dropPkNotForUs
attr title  "packets dropped/not for us, sum(packetBytes)"
scalar WirelessUnderlayNetworkOLSR.overlayTerminal[7].wlan[0].mac 	rcvdPkFromHL:count 	6
attr interpolationmode  none
attr source  packetReceivedFromUpper
attr title  "packets received from higher layer, count"
scalar WirelessUnderlayNetworkOLSR.overlayTerminal[7].wlan[0].mac 	rcvdPkFromHL:sum(packetBytes) 	328
attr interpolationmode  none
attr source  packetReceivedFromUpper
attr title  "packets received from higher layer, sum(packetBytes)"
scalar WirelessUnderlayNetworkOLSR.overlayTerminal[7].wlan[0].mac 	passedUpPk:count 	3
attr interpolationmode  none
attr source  packetSentToUpper
attr title  "packets passed to higher layer, count"
scalar WirelessUnderlayNetworkOLSR.overlayTerminal[7].wlan[0].mac 	passedUpPk:sum(packetBytes) 	176
attr interpolationmode  none
attr source  packetSentToUpper
attr title  "packets passed to higher layer, sum(packetBytes)"
scalar WirelessUnderlayNetworkOLSR.overlayTerminal[7].wlan[0].mac 	rcvdPkFromLL:count 	3
attr interpolationmode  none
attr source  packetReceivedFromLower
attr title  "packets received from lower layer, count"
scalar WirelessUnderlayNetworkOLSR.overlayTerminal[7].wlan[0].mac 	rcvdPkFromLL:sum(packetBytes) 	206
attr interpolationmode  none
attr source  packetReceivedFromLower
attr title  "packets received from lower layer, sum(packetBytes)"
scalar WirelessUnderlayNetworkOLSR.overlayTerminal[7].wlan[0].mac 	sentDownPk:count 	6
attr interpolationmode  none
attr source  packetSentToLower
attr title  "packets sent to lower layer, count"
scalar WirelessUnderlayNetworkOLSR.overlayTerminal[7].wlan[0].mac 	sentDownPk:sum(packetBytes) 	388
attr interpolationmode  none
attr source  packetSentToLower
attr title  "packets sent to lower layer, sum(packetBytes)"
scalar WirelessUnderlayNetworkOLSR.overlayTerminal[7].loopbackInterface.lo 	rcvdPkFromHL:count 	0
attr interpolationmode  none
attr source  packetReceivedFromUpper
attr title  "packets received from higher layer, count"
scalar WirelessUnderlayNetworkOLSR.overlayTerminal[7].loopbackInterface.lo 	rcvdPkFromHL:sum(packetBytes) 	0
attr interpolationmode  none
attr source  packetReceivedFromUpper
attr title  "packets received from higher layer, sum(packetBytes)"
scalar WirelessUnderlayNetworkOLSR.overlayTerminal[7].loopbackInterface.lo 	passedUpPk:count 	0
attr interpolationmode  none
attr source  packetSentToUpper
attr title  "packets passed to higher layer, count"
scalar WirelessUnderlayNetworkOLSR.overlayTerminal[7].loopbackInterface.lo 	passedUpPk:sum(packetBytes) 	0
attr interpolationmode  none
attr source  packetSentToUpper
attr title  "packets passed to higher layer, sum(packetBytes)"
scalar WirelessUnderlayNetworkOLSR.overlayTerminal[7].loopbackInterface.lo 	droppedPkBitError:count 	0
attr interpolationmode  none
attr source  dropPkBitError
attr title  "packets dropped/bit error, count"
scalar WirelessUnderlayNetworkOLSR.overlayTerminal[7].loopbackInterface.lo 	droppedPkBitError:sum(packetBytes) 	0
attr interpolationmode  none
attr source  dropPkBitError
attr title  "packets dropped/bit error, sum(packetBytes)"
scalar WirelessUnderlayNetworkOLSR.overlayTerminal[8].udp 	droppedPkBadChecksum:count 	0
attr interpolationmode  none
attr title  "packets dropped (checksum error), count"
scalar WirelessUnderlayNetworkOLSR.overlayTerminal[8].udp 	droppedPkWrongPort:count 	0
attr interpolationmode  none
attr title  "packets dropped (wrong port), count"
scalar WirelessUnderlayNetworkOLSR.overlayTerminal[8].udp 	passedUpPk:count 	0
attr interpolationmode  none
attr title  "packets passed up, count"
scalar WirelessUnderlayNetworkOLSR.overlayTerminal[8].udp 	sentPk:count 	0
attr interpolationmode  none
attr source  sentPk
attr title  "packets sent, count"
scalar WirelessUnderlayNetworkOLSR.overlayTerminal[8].udp 	sentPk:sum(packetBytes) 	0
attr interpolationmode  none
attr source  sentPk
attr title  "packets sent, sum(packetBytes)"
scalar WirelessUnderlayNetworkOLSR.overlayTerminal[8].udp 	rcvdPk:count 	0
attr interpolationmode  none
attr source  rcvdPk
attr title  "packets received, count"
scalar WirelessUnderlayNetworkOLSR.overlayTerminal[8].udp 	rcvdPk:sum(packetBytes) 	0
attr interpolationmode  none
attr source  rcvdPk
attr title  "packets received, sum(packetBytes)"
scalar WirelessUnderlayNetworkOLSR.overlayTerminal[8].networkLayer.arp 	initiatedARPResolution:count 	0
attr title  "ARP initiated resolutions, count"
scalar WirelessUnderlayNetworkOLSR.overlayTerminal[8].networkLayer.arp 	sentReply:count 	0
attr title  "ARP replies sent, count"
scalar WirelessUnderlayNetworkOLSR.overlayTerminal[8].networkLayer.arp 	sentReq:count 	0
attr title  "ARP request sent, count"
scalar WirelessUnderlayNetworkOLSR.overlayTerminal[8].networkLayer.arp 	failedARPResolution:count 	0
attr title  "ARP failed resolutions, count"
scalar WirelessUnderlayNetworkOLSR.overlayTerminal[8].networkLayer.arp 	completedARPResolution:count 	0
attr title  "ARP completed resolutions, count"
statistic WirelessUnderlayNetworkOLSR.overlayTerminal[8].wlan[0].queue 	queueingTime:histogram
field count 5
field mean 0
field stddev 0
field sum 0
field sqrsum 0
field min 0
field max 0
attr interpolationmode  none
attr title  "queueing time, histogram"
bin	-INF	0
bin	-0.5	0
bin	-0.46666666666667	0
bin	-0.43333333333333	0
bin	-0.4	0
bin	-0.36666666666667	0
bin	-0.33333333333333	0
bin	-0.3	0
bin	-0.26666666666667	0
bin	-0.23333333333333	0
bin	-0.2	0
bin	-0.16666666666667	0
bin	-0.13333333333333	0
bin	-0.1	0
bin	-0.066666666666667	0
bin	-0.033333333333333	0
bin	-6.9388939039072e-018	5
bin	0.033333333333333	0
bin	0.066666666666667	0
bin	0.1	0
bin	0.13333333333333	0
bin	0.16666666666667	0
bin	0.2	0
bin	0.23333333333333	0
bin	0.26666666666667	0
bin	0.3	0
bin	0.33333333333333	0
bin	0.36666666666667	0
bin	0.4	0
bin	0.43333333333333	0
bin	0.46666666666667	0
bin	0.5	0
scalar WirelessUnderlayNetworkOLSR.overlayTerminal[8].wlan[0].queue 	dropPk:count 	0
attr interpolationmode  none
attr source  dropPkByQueue
attr title  "dropped packets, count"
scalar WirelessUnderlayNetworkOLSR.overlayTerminal[8].wlan[0].queue 	dropPk:sum(packetBytes) 	0
attr interpolationmode  none
attr source  dropPkByQueue
attr title  "dropped packets, sum(packetBytes)"
scalar WirelessUnderlayNetworkOLSR.overlayTerminal[8].wlan[0].queue 	queueLength:max 	0
attr interpolationmode  sample-hold
attr title  "queue length, max"
scalar WirelessUnderlayNetworkOLSR.overlayTerminal[8].wlan[0].queue 	queueLength:timeavg 	0
attr interpolationmode  sample-hold
attr title  "queue length, timeavg"
scalar WirelessUnderlayNetworkOLSR.overlayTerminal[8].wlan[0].queue 	rcvdPk:count 	5
attr interpolationmode  none
attr title  "received packets, count"
scalar WirelessUnderlayNetworkOLSR.overlayTerminal[8].wlan[0].queue 	rcvdPk:sum(packetBytes) 	288
attr interpolationmode  none
attr title  "received packets, sum(packetBytes)"
scalar WirelessUnderlayNetworkOLSR.overlayTerminal[8].wlan[0].mac 	droppedPkNotForUs:count 	0
attr interpolationmode  none
attr source  dropPkNotForUs
attr title  "packets dropped/not for us, count"
scalar WirelessUnderlayNetworkOLSR.overlayTerminal[8].wlan[0].mac 	droppedPkNotForUs:sum(packetBytes) 	0
attr interpolationmode  none
attr source  dropPkNotForUs
attr title  "packets dropped/not for us, sum(packetBytes)"
scalar WirelessUnderlayNetworkOLSR.overlayTerminal[8].wlan[0].mac 	rcvdPkFromHL:count 	5
attr interpolationmode  none
attr source  packetReceivedFromUpper
attr title  "packets received from higher layer, count"
scalar WirelessUnderlayNetworkOLSR.overlayTerminal[8].wlan[0].mac 	rcvdPkFromHL:sum(packetBytes) 	288
attr interpolationmode  none
attr source  packetReceivedFromUpper
attr title  "packets received from higher layer, sum(packetBytes)"
scalar WirelessUnderlayNetworkOLSR.overlayTerminal[8].wlan[0].mac 	passedUpPk:count 	7
attr interpolationmode  none
attr source  packetSentToUpper
attr title  "packets passed to higher layer, count"
scalar WirelessUnderlayNetworkOLSR.overlayTerminal[8].wlan[0].mac 	passedUpPk:sum(packetBytes) 	368
attr interpolationmode  none
attr source  packetSentToUpper
attr title  "packets passed to higher layer, sum(packetBytes)"
scalar WirelessUnderlayNetworkOLSR.overlayTerminal[8].wlan[0].mac 	rcvdPkFromLL:count 	7
attr interpolationmode  none
attr source  packetReceivedFromLower
attr title  "packets received from lower layer, count"
scalar WirelessUnderlayNetworkOLSR.overlayTerminal[8].wlan[0].mac 	rcvdPkFromLL:sum(packetBytes) 	438
attr interpolationmode  none
attr source  packetReceivedFromLower
attr title  "packets received from lower layer, sum(packetBytes)"
scalar WirelessUnderlayNetworkOLSR.overlayTerminal[8].wlan[0].mac 	sentDownPk:count 	5
attr interpolationmode  none
attr source  packetSentToLower
attr title  "packets sent to lower layer, count"
scalar WirelessUnderlayNetworkOLSR.overlayTerminal[8].wlan[0].mac 	sentDownPk:sum(packetBytes) 	338
attr interpolationmode  none
attr source  packetSentToLower
attr title  "packets sent to lower layer, sum(packetBytes)"
scalar WirelessUnderlayNetworkOLSR.overlayTerminal[8].loopbackInterface.lo 	rcvdPkFromHL:count 	0
attr interpolationmode  none
attr source  packetReceivedFromUpper
attr title  "packets received from higher layer, count"
scalar WirelessUnderlayNetworkOLSR.overlayTerminal[8].loopbackInterface.lo 	rcvdPkFromHL:sum(packetBytes) 	0
attr interpolationmode  none
attr source  packetReceivedFromUpper
attr title  "packets received from higher layer, sum(packetBytes)"
scalar WirelessUnderlayNetworkOLSR.overlayTerminal[8].loopbackInterface.lo 	passedUpPk:count 	0
attr interpolationmode  none
attr source  packetSentToUpper
attr title  "packets passed to higher layer, count"
scalar WirelessUnderlayNetworkOLSR.overlayTerminal[8].loopbackInterface.lo 	passedUpPk:sum(packetBytes) 	0
attr interpolationmode  none
attr source  packetSentToUpper
attr title  "packets passed to higher layer, sum(packetBytes)"
scalar WirelessUnderlayNetworkOLSR.overlayTerminal[8].loopbackInterface.lo 	droppedPkBitError:count 	0
attr interpolationmode  none
attr source  dropPkBitError
attr title  "packets dropped/bit error, count"
scalar WirelessUnderlayNetworkOLSR.overlayTerminal[8].loopbackInterface.lo 	droppedPkBitError:sum(packetBytes) 	0
attr interpolationmode  none
attr source  dropPkBitError
attr title  "packets dropped/bit error, sum(packetBytes)"
scalar WirelessUnderlayNetworkOLSR.overlayTerminal[9].udp 	droppedPkBadChecksum:count 	0
attr interpolationmode  none
attr title  "packets dropped (checksum error), count"
scalar WirelessUnderlayNetworkOLSR.overlayTerminal[9].udp 	droppedPkWrongPort:count 	0
attr interpolationmode  none
attr title  "packets dropped (wrong port), count"
scalar WirelessUnderlayNetworkOLSR.overlayTerminal[9].udp 	passedUpPk:count 	0
attr interpolationmode  none
attr title  "packets passed up, count"
scalar WirelessUnderlayNetworkOLSR.overlayTerminal[9].udp 	sentPk:count 	0
attr interpolationmode  none
attr source  sentPk
attr title  "packets sent, count"
scalar WirelessUnderlayNetworkOLSR.overlayTerminal[9].udp 	sentPk:sum(packetBytes) 	0
attr interpolationmode  none
attr source  sentPk
attr title  "packets sent, sum(packetBytes)"
scalar WirelessUnderlayNetworkOLSR.overlayTerminal[9].udp 	rcvdPk:count 	0
attr interpolationmode  none
attr source  rcvdPk
attr title  "packets received, count"
scalar WirelessUnderlayNetworkOLSR.overlayTerminal[9].udp 	rcvdPk:sum(packetBytes) 	0
attr interpolationmode  none
attr source  rcvdPk
attr title  "packets received, sum(packetBytes)"
scalar WirelessUnderlayNetworkOLSR.overlayTerminal[9].networkLayer.arp 	initiatedARPResolution:count 	0
attr title  "ARP initiated resolutions, count"
scalar WirelessUnderlayNetworkOLSR.overlayTerminal[9].networkLayer.arp 	sentReply:count 	0
attr title  "ARP replies sent, count"
scalar WirelessUnderlayNetworkOLSR.overlayTerminal[9].networkLayer.arp 	sentReq:count 	0
attr title  "ARP request sent, count"
scalar WirelessUnderlayNetworkOLSR.overlayTerminal[9].networkLayer.arp 	failedARPResolution:count 	0
attr title  "ARP failed resolutions, count"
scalar WirelessUnderlayNetworkOLSR.overlayTerminal[9].networkLayer.arp 	completedARPResolution:count 	0
attr title  "ARP completed resolutions, count"
statistic WirelessUnderlayNetworkOLSR.overlayTerminal[9].wlan[0].queue 	queueingTime:histogram
field count 5
field mean 0
field stddev 0
field sum 0
field sqrsum 0
field min 0
field max 0
attr interpolationmode  none
attr title  "queueing time, histogram"
bin	-INF	0
bin	-0.5	0
bin	-0.46666666666667	0
bin	-0.43333333333333	0
bin	-0.4	0
bin	-0.36666666666667	0
bin	-0.33333333333333	0
bin	-0.3	0
bin	-0.26666666666667	0
bin	-0.23333333333333	0
bin	-0.2	0
bin	-0.16666666666667	0
bin	-0.13333333333333	0
bin	-0.1	0
bin	-0.066666666666667	0
bin	-0.033333333333333	0
bin	-6.9388939039072e-018	5
bin	0.033333333333333	0
bin	0.066666666666667	0
bin	0.1	0
bin	0.13333333333333	0
bin	0.16666666666667	0
bin	0.2	0
bin	0.23333333333333	0
bin	0.26666666666667	0
bin	0.3	0
bin	0.33333333333333	0
bin	0.36666666666667	0
bin	0.4	0
bin	0.43333333333333	0
bin	0.46666666666667	0
bin	0.5	0
scalar WirelessUnderlayNetworkOLSR.overlayTerminal[9].wlan[0].queue 	dropPk:count 	0
attr interpolationmode  none
attr source  dropPkByQueue
attr title  "dropped packets, count"
scalar WirelessUnderlayNetworkOLSR.overlayTerminal[9].wlan[0].queue 	dropPk:sum(packetBytes) 	0
attr interpolationmode  none
attr source  dropPkByQueue
attr title  "dropped packets, sum(packetBytes)"
scalar WirelessUnderlayNetworkOLSR.overlayTerminal[9].wlan[0].queue 	queueLength:max 	0
attr interpolationmode  sample-hold
attr title  "queue length, max"
scalar WirelessUnderlayNetworkOLSR.overlayTerminal[9].wlan[0].queue 	queueLength:timeavg 	0
attr interpolationmode  sample-hold
attr title  "queue length, timeavg"
scalar WirelessUnderlayNetworkOLSR.overlayTerminal[9].wlan[0].queue 	rcvdPk:count 	5
attr interpolationmode  none
attr title  "received packets, count"
scalar WirelessUnderlayNetworkOLSR.overlayTerminal[9].wlan[0].queue 	rcvdPk:sum(packetBytes) 	256
attr interpolationmode  none
attr title  "received packets, sum(packetBytes)"
scalar WirelessUnderlayNetworkOLSR.overlayTerminal[9].wlan[0].mac 	droppedPkNotForUs:count 	0
attr interpolationmode  none
attr source  dropPkNotForUs
attr title  "packets dropped/not for us, count"
scalar WirelessUnderlayNetworkOLSR.overlayTerminal[9].wlan[0].mac 	droppedPkNotForUs:sum(packetBytes) 	0
attr interpolationmode  none
attr source  dropPkNotForUs
attr title  "packets dropped/not for us, sum(packetBytes)"
scalar WirelessUnderlayNetworkOLSR.overlayTerminal[9].wlan[0].mac 	rcvdPkFromHL:count 	5
attr interpolationmode  none
attr source  packetReceivedFromUpper
attr title  "packets received from higher layer, count"
scalar WirelessUnderlayNetworkOLSR.overlayTerminal[9].wlan[0].mac 	rcvdPkFromHL:sum(packetBytes) 	256
attr interpolationmode  none
attr source  packetReceivedFromUpper
attr title  "packets received from higher layer, sum(packetBytes)"
scalar WirelessUnderlayNetworkOLSR.overlayTerminal[9].wlan[0].mac 	passedUpPk:count 	0
attr interpolationmode  none
attr source  packetSentToUpper
attr title  "packets passed to higher layer, count"
scalar WirelessUnderlayNetworkOLSR.overlayTerminal[9].wlan[0].mac 	passedUpPk:sum(packetBytes) 	0
attr interpolationmode  none
attr source  packetSentToUpper
attr title  "packets passed to higher layer, sum(packetBytes)"
scalar WirelessUnderlayNetworkOLSR.overlayTerminal[9].wlan[0].mac 	rcvdPkFromLL:count 	0
attr interpolationmode  none
attr source  packetReceivedFromLower
attr title  "packets received from lower layer, count"
scalar WirelessUnderlayNetworkOLSR.overlayTerminal[9].wlan[0].mac 	rcvdPkFromLL:sum(packetBytes) 	0
attr interpolationmode  none
attr source  packetReceivedFromLower
attr title  "packets received from lower layer, sum(packetBytes)"
scalar WirelessUnderlayNetworkOLSR.overlayTerminal[9].wlan[0].mac 	sentDownPk:count 	5
attr interpolationmode  none
attr source  packetSentToLower
attr title  "packets sent to lower layer, count"
scalar WirelessUnderlayNetworkOLSR.overlayTerminal[9].wlan[0].mac 	sentDownPk:sum(packetBytes) 	306
attr interpolationmode  none
attr source  packetSentToLower
attr title  "packets sent to lower layer, sum(packetBytes)"
scalar WirelessUnderlayNetworkOLSR.overlayTerminal[9].loopbackInterface.lo 	rcvdPkFromHL:count 	0
attr interpolationmode  none
attr source  packetReceivedFromUpper
attr title  "packets received from higher layer, count"
scalar WirelessUnderlayNetworkOLSR.overlayTerminal[9].loopbackInterface.lo 	rcvdPkFromHL:sum(packetBytes) 	0
attr interpolationmode  none
attr source  packetReceivedFromUpper
attr title  "packets received from higher layer, sum(packetBytes)"
scalar WirelessUnderlayNetworkOLSR.overlayTerminal[9].loopbackInterface.lo 	passedUpPk:count 	0
attr interpolationmode  none
attr source  packetSentToUpper
attr title  "packets passed to higher layer, count"
scalar WirelessUnderlayNetworkOLSR.overlayTerminal[9].loopbackInterface.lo 	passedUpPk:sum(packetBytes) 	0
attr interpolationmode  none
attr source  packetSentToUpper
attr title  "packets passed to higher layer, sum(packetBytes)"
scalar WirelessUnderlayNetworkOLSR.overlayTerminal[9].loopbackInterface.lo 	droppedPkBitError:count 	0
attr interpolationmode  none
attr source  dropPkBitError
attr title  "packets dropped/bit error, count"
scalar WirelessUnderlayNetworkOLSR.overlayTerminal[9].loopbackInterface.lo 	droppedPkBitError:sum(packetBytes) 	0
attr interpolationmode  none
attr source  dropPkBitError
attr title  "packets dropped/bit error, sum(packetBytes)"
scalar WirelessUnderlayNetworkOLSR.overlayTerminal[10].udp 	droppedPkBadChecksum:count 	0
attr interpolationmode  none
attr title  "packets dropped (checksum error), count"
scalar WirelessUnderlayNetworkOLSR.overlayTerminal[10].udp 	droppedPkWrongPort:count 	0
attr interpolationmode  none
attr title  "packets dropped (wrong port), count"
scalar WirelessUnderlayNetworkOLSR.overlayTerminal[10].udp 	passedUpPk:count 	0
attr interpolationmode  none
attr title  "packets passed up, count"
scalar WirelessUnderlayNetworkOLSR.overlayTerminal[10].udp 	sentPk:count 	0
attr interpolationmode  none
attr source  sentPk
attr title  "packets sent, count"
scalar WirelessUnderlayNetworkOLSR.overlayTerminal[10].udp 	sentPk:sum(packetBytes) 	0
attr interpolationmode  none
attr source  sentPk
attr title  "packets sent, sum(packetBytes)"
scalar WirelessUnderlayNetworkOLSR.overlayTerminal[10].udp 	rcvdPk:count 	0
attr interpolationmode  none
attr source  rcvdPk
attr title  "packets received, count"
scalar WirelessUnderlayNetworkOLSR.overlayTerminal[10].udp 	rcvdPk:sum(packetBytes) 	0
attr interpolationmode  none
attr source  rcvdPk
attr title  "packets received, sum(packetBytes)"
scalar WirelessUnderlayNetworkOLSR.overlayTerminal[10].networkLayer.arp 	initiatedARPResolution:count 	0
attr title  "ARP initiated resolutions, count"
scalar WirelessUnderlayNetworkOLSR.overlayTerminal[10].networkLayer.arp 	sentReply:count 	0
attr title  "ARP replies sent, count"
scalar WirelessUnderlayNetworkOLSR.overlayTerminal[10].networkLayer.arp 	sentReq:count 	0
attr title  "ARP request sent, count"
scalar WirelessUnderlayNetworkOLSR.overlayTerminal[10].networkLayer.arp 	failedARPResolution:count 	0
attr title  "ARP failed resolutions, count"
scalar WirelessUnderlayNetworkOLSR.overlayTerminal[10].networkLayer.arp 	completedARPResolution:count 	0
attr title  "ARP completed resolutions, count"
statistic WirelessUnderlayNetworkOLSR.overlayTerminal[10].wlan[0].queue 	queueingTime:histogram
field count 5
field mean 0
field stddev 0
field sum 0
field sqrsum 0
field min 0
field max 0
attr interpolationmode  none
attr title  "queueing time, histogram"
bin	-INF	0
bin	-0.5	0
bin	-0.46666666666667	0
bin	-0.43333333333333	0
bin	-0.4	0
bin	-0.36666666666667	0
bin	-0.33333333333333	0
bin	-0.3	0
bin	-0.26666666666667	0
bin	-0.23333333333333	0
bin	-0.2	0
bin	-0.16666666666667	0
bin	-0.13333333333333	0
bin	-0.1	0
bin	-0.066666666666667	0
bin	-0.033333333333333	0
bin	-6.9388939039072e-018	5
bin	0.033333333333333	0
bin	0.066666666666667	0
bin	0.1	0
bin	0.13333333333333	0
bin	0.16666666666667	0
bin	0.2	0
bin	0.23333333333333	0
bin	0.26666666666667	0
bin	0.3	0
bin	0.33333333333333	0
bin	0.36666666666667	0
bin	0.4	0
bin	0.43333333333333	0
bin	0.46666666666667	0
bin	0.5	0
scalar WirelessUnderlayNetworkOLSR.overlayTerminal[10].wlan[0].queue 	dropPk:count 	0
attr interpolationmode  none
attr source  dropPkByQueue
attr title  "dropped packets, count"
scalar WirelessUnderlayNetworkOLSR.overlayTerminal[10].wlan[0].queue 	dropPk:sum(packetBytes) 	0
attr interpolationmode  none
attr source  dropPkByQueue
attr title  "dropped packets, sum(packetBytes)"
scalar WirelessUnderlayNetworkOLSR.overlayTerminal[10].wlan[0].queue 	queueLength:max 	0
attr interpolationmode  sample-hold
attr title  "queue length, max"
scalar WirelessUnderlayNetworkOLSR.overlayTerminal[10].wlan[0].queue 	queueLength:timeavg 	0
attr interpolationmode  sample-hold
attr title  "queue length, timeavg"
scalar WirelessUnderlayNetworkOLSR.overlayTerminal[10].wlan[0].queue 	rcvdPk:count 	5
attr interpolationmode  none
attr title  "received packets, count"
scalar WirelessUnderlayNetworkOLSR.overlayTerminal[10].wlan[0].queue 	rcvdPk:sum(packetBytes) 	256
attr interpolationmode  none
attr title  "received packets, sum(packetBytes)"
scalar WirelessUnderlayNetworkOLSR.overlayTerminal[10].wlan[0].mac 	droppedPkNotForUs:count 	0
attr interpolationmode  none
attr source  dropPkNotForUs
attr title  "packets dropped/not for us, count"
scalar WirelessUnderlayNetworkOLSR.overlayTerminal[10].wlan[0].mac 	droppedPkNotForUs:sum(packetBytes) 	0
attr interpolationmode  none
attr source  dropPkNotForUs
attr title  "packets dropped/not for us, sum(packetBytes)"
scalar WirelessUnderlayNetworkOLSR.overlayTerminal[10].wlan[0].mac 	rcvdPkFromHL:count 	5
attr interpolationmode  none
attr source  packetReceivedFromUpper
attr title  "packets received from higher layer, count"
scalar WirelessUnderlayNetworkOLSR.overlayTerminal[10].wlan[0].mac 	rcvdPkFromHL:sum(packetBytes) 	256
attr interpolationmode  none
attr source  packetReceivedFromUpper
attr title  "packets received from higher layer, sum(packetBytes)"
scalar WirelessUnderlayNetworkOLSR.overlayTerminal[10].wlan[0].mac 	passedUpPk:count 	0
attr interpolationmode  none
attr source  packetSentToUpper
attr title  "packets passed to higher layer, count"
scalar WirelessUnderlayNetworkOLSR.overlayTerminal[10].wlan[0].mac 	passedUpPk:sum(packetBytes) 	0
attr interpolationmode  none
attr source  packetSentToUpper
attr title  "packets passed to higher layer, sum(packetBytes)"
scalar WirelessUnderlayNetworkOLSR.overlayTerminal[10].wlan[0].mac 	rcvdPkFromLL:count 	0
attr interpolationmode  none
attr source  packetReceivedFromLower
attr title  "packets received from lower layer, count"
scalar WirelessUnderlayNetworkOLSR.overlayTerminal[10].wlan[0].mac 	rcvdPkFromLL:sum(packetBytes) 	0
attr interpolationmode  none
attr source  packetReceivedFromLower
attr title  "packets received from lower layer, sum(packetBytes)"
scalar WirelessUnderlayNetworkOLSR.overlayTerminal[10].wlan[0].mac 	sentDownPk:count 	5
attr interpolationmode  none
attr source  packetSentToLower
attr title  "packets sent to lower layer, count"
scalar WirelessUnderlayNetworkOLSR.overlayTerminal[10].wlan[0].mac 	sentDownPk:sum(packetBytes) 	306
attr interpolationmode  none
attr source  packetSentToLower
attr title  "packets sent to lower layer, sum(packetBytes)"
scalar WirelessUnderlayNetworkOLSR.overlayTerminal[10].loopbackInterface.lo 	rcvdPkFromHL:count 	0
attr interpolationmode  none
attr source  packetReceivedFromUpper
attr title  "packets received from higher layer, count"
scalar WirelessUnderlayNetworkOLSR.overlayTerminal[10].loopbackInterface.lo 	rcvdPkFromHL:sum(packetBytes) 	0
attr interpolationmode  none
attr source  packetReceivedFromUpper
attr title  "packets received from higher layer, sum(packetBytes)"
scalar WirelessUnderlayNetworkOLSR.overlayTerminal[10].loopbackInterface.lo 	passedUpPk:count 	0
attr interpolationmode  none
attr source  packetSentToUpper
attr title  "packets passed to higher layer, count"
scalar WirelessUnderlayNetworkOLSR.overlayTerminal[10].loopbackInterface.lo 	passedUpPk:sum(packetBytes) 	0
attr interpolationmode  none
attr source  packetSentToUpper
[...]
field mean 0
field stddev nan
field sum 0
field sqrsum 0
field min 0
field max 0
attr interpolationmode  none
attr title  "queueing time, histogram"
bin	-INF	0
bin	-0.5	0
bin	-0.46666666666667	0
bin	-0.43333333333333	0
bin	-0.4	0
bin	-0.36666666666667	0
bin	-0.33333333333333	0
bin	-0.3	0
bin	-0.26666666666667	0
bin	-0.23333333333333	0
bin	-0.2	0
bin	-0.16666666666667	0
bin	-0.13333333333333	0
bin	-0.1	0
bin	-0.066666666666667	0
bin	-0.033333333333333	0
bin	-6.9388939039072e-018	1
bin	0.033333333333333	0
bin	0.066666666666667	0
bin	0.1	0
bin	0.13333333333333	0
bin	0.16666666666667	0
bin	0.2	0
bin	0.23333333333333	0
bin	0.26666666666667	0
bin	0.3	0
bin	0.33333333333333	0
bin	0.36666666666667	0
bin	0.4	0
bin	0.43333333333333	0
bin	0.46666666666667	0
bin	0.5	0
scalar WirelessUnderlayNetworkOLSR.overlayTerminal[14].wlan[0].queue 	dropPk:count 	0
attr interpolationmode  none
attr source  dropPkByQueue
attr title  "dropped packets, count"
scalar WirelessUnderlayNetworkOLSR.overlayTerminal[14].wlan[0].queue 	dropPk:sum(packetBytes) 	0
attr interpolationmode  none
attr source  dropPkByQueue
attr title  "dropped packets, sum(packetBytes)"
scalar WirelessUnderlayNetworkOLSR.overlayTerminal[14].wlan[0].queue 	queueLength:max 	0
attr interpolationmode  sample-hold
attr title  "queue length, max"
scalar WirelessUnderlayNetworkOLSR.overlayTerminal[14].wlan[0].queue 	queueLength:timeavg 	0
attr interpolationmode  sample-hold
attr title  "queue length, timeavg"
scalar WirelessUnderlayNetworkOLSR.overlayTerminal[14].wlan[0].queue 	rcvdPk:count 	1
attr interpolationmode  none
attr title  "received packets, count"
scalar WirelessUnderlayNetworkOLSR.overlayTerminal[14].wlan[0].queue 	rcvdPk:sum(packetBytes) 	72
attr interpolationmode  none
attr title  "received packets, sum(packetBytes)"
scalar WirelessUnderlayNetworkOLSR.overlayTerminal[14].wlan[0].mac 	droppedPkNotForUs:count 	0
attr interpolationmode  none
attr source  dropPkNotForUs
attr title  "packets dropped/not for us, count"
scalar WirelessUnderlayNetworkOLSR.overlayTerminal[14].wlan[0].mac 	droppedPkNotForUs:sum(packetBytes) 	0
attr interpolationmode  none
attr source  dropPkNotForUs
attr title  "packets dropped/not for us, sum(packetBytes)"
scalar WirelessUnderlayNetworkOLSR.overlayTerminal[14].wlan[0].mac 	rcvdPkFromHL:count 	1
attr interpolationmode  none
attr source  packetReceivedFromUpper
attr title  "packets received from higher layer, count"
scalar WirelessUnderlayNetworkOLSR.overlayTerminal[14].wlan[0].mac 	rcvdPkFromHL:sum(packetBytes) 	72
attr interpolationmode  none
attr source  packetReceivedFromUpper
attr title  "packets received from higher layer, sum(packetBytes)"
scalar WirelessUnderlayNetworkOLSR.overlayTerminal[14].wlan[0].mac 	passedUpPk:count 	2
attr interpolationmode  none
attr source  packetSentToUpper
attr title  "packets passed to higher layer, count"
scalar WirelessUnderlayNetworkOLSR.overlayTerminal[14].wlan[0].mac 	passedUpPk:sum(packetBytes) 	104
attr interpolationmode  none
attr source  packetSentToUpper
attr title  "packets passed to higher layer, sum(packetBytes)"
scalar WirelessUnderlayNetworkOLSR.overlayTerminal[14].wlan[0].mac 	rcvdPkFromLL:count 	2
attr interpolationmode  none
attr source  packetReceivedFromLower
attr title  "packets received from lower layer, count"
scalar WirelessUnderlayNetworkOLSR.overlayTerminal[14].wlan[0].mac 	rcvdPkFromLL:sum(packetBytes) 	124
attr interpolationmode  none
attr source  packetReceivedFromLower
attr title  "packets received from lower layer, sum(packetBytes)"
scalar WirelessUnderlayNetworkOLSR.overlayTerminal[14].wlan[0].mac 	sentDownPk:count 	1
attr interpolationmode  none
attr source  packetSentToLower
attr title  "packets sent to lower layer, count"
scalar WirelessUnderlayNetworkOLSR.overlayTerminal[14].wlan[0].mac 	sentDownPk:sum(packetBytes) 	82
attr interpolationmode  none
attr source  packetSentToLower
attr title  "packets sent to lower layer, sum(packetBytes)"
scalar WirelessUnderlayNetworkOLSR.overlayTerminal[14].loopbackInterface.lo 	rcvdPkFromHL:count 	0
attr interpolationmode  none
attr source  packetReceivedFromUpper
attr title  "packets received from higher layer, count"
scalar WirelessUnderlayNetworkOLSR.overlayTerminal[14].loopbackInterface.lo 	rcvdPkFromHL:sum(packetBytes) 	0
attr interpolationmode  none
attr source  packetReceivedFromUpper
attr title  "packets received from higher layer, sum(packetBytes)"
scalar WirelessUnderlayNetworkOLSR.overlayTerminal[14].loopbackInterface.lo 	passedUpPk:count 	0
attr interpolationmode  none
attr source  packetSentToUpper
attr title  "packets passed to higher layer, count"
scalar WirelessUnderlayNetworkOLSR.overlayTerminal[14].loopbackInterface.lo 	passedUpPk:sum(packetBytes) 	0
attr interpolationmode  none
attr source  packetSentToUpper
attr title  "packets passed to higher layer, sum(packetBytes)"
scalar WirelessUnderlayNetworkOLSR.overlayTerminal[14].loopbackInterface.lo 	droppedPkBitError:count 	0
attr interpolationmode  none
attr source  dropPkBitError
attr title  "packets dropped/bit error, count"
scalar WirelessUnderlayNetworkOLSR.overlayTerminal[14].loopbackInterface.lo 	droppedPkBitError:sum(packetBytes) 	0
attr interpolationmode  none
attr source  dropPkBitError
attr title  "packets dropped/bit error, sum(packetBytes)"
scalar WirelessUnderlayNetworkOLSR.overlayTerminal[15].udp 	droppedPkBadChecksum:count 	0
attr interpolationmode  none
attr title  "packets dropped (checksum error), count"
scalar WirelessUnderlayNetworkOLSR.overlayTerminal[15].udp 	droppedPkWrongPort:count 	0
attr interpolationmode  none
attr title  "packets dropped (wrong port), count"
scalar WirelessUnderlayNetworkOLSR.overlayTerminal[15].udp 	passedUpPk:count 	0
attr interpolationmode  none
attr title  "packets passed up, count"
scalar WirelessUnderlayNetworkOLSR.overlayTerminal[15].udp 	sentPk:count 	0
attr interpolationmode  none
attr source  sentPk
attr title  "packets sent, count"
scalar WirelessUnderlayNetworkOLSR.overlayTerminal[15].udp 	sentPk:sum(packetBytes) 	0
attr interpolationmode  none
attr source  sentPk
attr title  "packets sent, sum(packetBytes)"
scalar WirelessUnderlayNetworkOLSR.overlayTerminal[15].udp 	rcvdPk:count 	0
attr interpolationmode  none
attr source  rcvdPk
attr title  "packets received, count"
scalar WirelessUnderlayNetworkOLSR.overlayTerminal[15].udp 	rcvdPk:sum(packetBytes) 	0
attr interpolationmode  none
attr source  rcvdPk
attr title  "packets received, sum(packetBytes)"
scalar WirelessUnderlayNetworkOLSR.overlayTerminal[15].networkLayer.arp 	initiatedARPResolution:count 	0
attr title  "ARP initiated resolutions, count"
scalar WirelessUnderlayNetworkOLSR.overlayTerminal[15].networkLayer.arp 	sentReply:count 	0
attr title  "ARP replies sent, count"
scalar WirelessUnderlayNetworkOLSR.overlayTerminal[15].networkLayer.arp 	sentReq:count 	0
attr title  "ARP request sent, count"
scalar WirelessUnderlayNetworkOLSR.overlayTerminal[15].networkLayer.arp 	failedARPResolution:count 	0
attr title  "ARP failed resolutions, count"
scalar WirelessUnderlayNetworkOLSR.overlayTerminal[15].networkLayer.arp 	completedARPResolution:count 	0
attr title  "ARP completed resolutions, count"
statistic WirelessUnderlayNetworkOLSR.overlayTerminal[15].wlan[0].queue 	queueingTime:histogram
field count 0
field mean nan
field stddev nan
field sum 0
field sqrsum 0
field min nan
field max nan
attr interpolationmode  none
attr title  "queueing time, histogram"
bin	-INF	0
bin	-0.5	0
bin	-0.46666666666667	0
bin	-0.43333333333333	0
bin	-0.4	0
bin	-0.36666666666667	0
bin	-0.33333333333333	0
bin	-0.3	0
bin	-0.26666666666667	0
bin	-0.23333333333333	0
bin	-0.2	0
bin	-0.16666666666667	0
bin	-0.13333333333333	0
bin	-0.1	0
bin	-0.066666666666667	0
bin	-0.033333333333333	0
bin	-6.9388939039072e-018	0
bin	0.033333333333333	0
bin	0.066666666666667	0
bin	0.1	0
bin	0.13333333333333	0
bin	0.16666666666667	0
bin	0.2	0
bin	0.23333333333333	0
bin	0.26666666666667	0
bin	0.3	0
bin	0.33333333333333	0
bin	0.36666666666667	0
bin	0.4	0
bin	0.43333333333333	0
bin	0.46666666666667	0
bin	0.5	0
scalar WirelessUnderlayNetworkOLSR.overlayTerminal[15].wlan[0].queue 	dropPk:count 	0
attr interpolationmode  none
attr source  dropPkByQueue
attr title  "dropped packets, count"
scalar WirelessUnderlayNetworkOLSR.overlayTerminal[15].wlan[0].queue 	dropPk:sum(packetBytes) 	0
attr interpolationmode  none
attr source  dropPkByQueue
attr title  "dropped packets, sum(packetBytes)"
scalar WirelessUnderlayNetworkOLSR.overlayTerminal[15].wlan[0].queue 	queueLength:max 	0
attr interpolationmode  sample-hold
attr title  "queue length, max"
scalar WirelessUnderlayNetworkOLSR.overlayTerminal[15].wlan[0].queue 	queueLength:timeavg 	0
attr interpolationmode  sample-hold
attr title  "queue length, timeavg"
scalar WirelessUnderlayNetworkOLSR.overlayTerminal[15].wlan[0].queue 	rcvdPk:count 	0
attr interpolationmode  none
attr title  "received packets, count"
scalar WirelessUnderlayNetworkOLSR.overlayTerminal[15].wlan[0].queue 	rcvdPk:sum(packetBytes) 	0
attr interpolationmode  none
attr title  "received packets, sum(packetBytes)"
scalar WirelessUnderlayNetworkOLSR.overlayTerminal[15].wlan[0].mac 	droppedPkNotForUs:count 	0
attr interpolationmode  none
attr source  dropPkNotForUs
attr title  "packets dropped/not for us, count"
scalar WirelessUnderlayNetworkOLSR.overlayTerminal[15].wlan[0].mac 	droppedPkNotForUs:sum(packetBytes) 	0
attr interpolationmode  none
attr source  dropPkNotForUs
attr title  "packets dropped/not for us, sum(packetBytes)"
scalar WirelessUnderlayNetworkOLSR.overlayTerminal[15].wlan[0].mac 	rcvdPkFromHL:count 	0
attr interpolationmode  none
attr source  packetReceivedFromUpper
attr title  "packets received from higher layer, count"
scalar WirelessUnderlayNetworkOLSR.overlayTerminal[15].wlan[0].mac 	rcvdPkFromHL:sum(packetBytes) 	0
attr interpolationmode  none
attr source  packetReceivedFromUpper
attr title  "packets received from higher layer, sum(packetBytes)"
scalar WirelessUnderlayNetworkOLSR.overlayTerminal[15].wlan[0].mac 	passedUpPk:count 	3
attr interpolationmode  none
attr source  packetSentToUpper
attr title  "packets passed to higher layer, count"
scalar WirelessUnderlayNetworkOLSR.overlayTerminal[15].wlan[0].mac 	passedUpPk:sum(packetBytes) 	152
attr interpolationmode  none
attr source  packetSentToUpper
attr title  "packets passed to higher layer, sum(packetBytes)"
scalar WirelessUnderlayNetworkOLSR.overlayTerminal[15].wlan[0].mac 	rcvdPkFromLL:count 	3
attr interpolationmode  none
attr source  packetReceivedFromLower
attr title  "packets received from lower layer, count"
scalar WirelessUnderlayNetworkOLSR.overlayTerminal[15].wlan[0].mac 	rcvdPkFromLL:sum(packetBytes) 	182
attr interpolationmode  none
attr source  packetReceivedFromLower
attr title  "packets received from lower layer, sum(packetBytes)"
scalar WirelessUnderlayNetworkOLSR.overlayTerminal[15].wlan[0].mac 	sentDownPk:count 	0
attr interpolationmode  none
attr source  packetSentToLower
attr title  "packets sent to lower layer, count"
scalar WirelessUnderlayNetworkOLSR.overlayTerminal[15].wlan[0].mac 	sentDownPk:sum(packetBytes) 	0
attr interpolationmode  none
attr source  packetSentToLower
attr title  "packets sent to lower layer, sum(packetBytes)"
scalar WirelessUnderlayNetworkOLSR.overlayTerminal[15].loopbackInterface.lo 	rcvdPkFromHL:count 	0
attr interpolationmode  none
attr source  packetReceivedFromUpper
attr title  "packets received from higher layer, count"
scalar WirelessUnderlayNetworkOLSR.overlayTerminal[15].loopbackInterface.lo 	rcvdPkFromHL:sum(packetBytes) 	0
attr interpolationmode  none
attr source  packetReceivedFromUpper
attr title  "packets received from higher layer, sum(packetBytes)"
scalar WirelessUnderlayNetworkOLSR.overlayTerminal[15].loopbackInterface.lo 	passedUpPk:count 	0
attr interpolationmode  none
attr source  packetSentToUpper
attr title  "packets passed to higher layer, count"
scalar WirelessUnderlayNetworkOLSR.overlayTerminal[15].loopbackInterface.lo 	passedUpPk:sum(packetBytes) 	0
attr interpolationmode  none
attr source  packetSentToUpper
attr title  "packets passed to higher layer, sum(packetBytes)"
scalar WirelessUnderlayNetworkOLSR.overlayTerminal[15].loopbackInterface.lo 	droppedPkBitError:count 	0
attr interpolationmode  none
attr source  dropPkBitError
attr title  "packets dropped/bit error, count"
scalar WirelessUnderlayNetworkOLSR.overlayTerminal[15].loopbackInterface.lo 	droppedPkBitError:sum(packetBytes) 	0
attr interpolationmode  none
attr source  dropPkBitError
attr title  "packets dropped/bit error, sum(packetBytes)"
scalar WirelessUnderlayNetworkOLSR.overlayTerminal[16].udp 	droppedPkBadChecksum:count 	0
attr interpolationmode  none
attr title  "packets dropped (checksum error), count"
scalar WirelessUnderlayNetworkOLSR.overlayTerminal[16].udp 	droppedPkWrongPort:count 	0
attr interpolationmode  none
attr title  "packets dropped (wrong port), count"
scalar WirelessUnderlayNetworkOLSR.overlayTerminal[16].udp 	passedUpPk:count 	0
attr interpolationmode  none
attr title  "packets passed up, count"
scalar WirelessUnderlayNetworkOLSR.overlayTerminal[16].udp 	sentPk:count 	0
attr interpolationmode  none
attr source  sentPk
attr title  "packets sent, count"
scalar WirelessUnderlayNetworkOLSR.overlayTerminal[16].udp 	sentPk:sum(packetBytes) 	0
attr interpolationmode  none
attr source  sentPk
attr title  "packets sent, sum(packetBytes)"
scalar WirelessUnderlayNetworkOLSR.overlayTerminal[16].udp 	rcvdPk:count 	0
attr interpolationmode  none
attr source  rcvdPk
attr title  "packets received, count"
scalar WirelessUnderlayNetworkOLSR.overlayTerminal[16].udp 	rcvdPk:sum(packetBytes) 	0
attr interpolationmode  none
attr source  rcvdPk
attr title  "packets received, sum(packetBytes)"
scalar WirelessUnderlayNetworkOLSR.overlayTerminal[16].networkLayer.arp 	initiatedARPResolution:count 	0
attr title  "ARP initiated resolutions, count"
scalar WirelessUnderlayNetworkOLSR.overlayTerminal[16].networkLayer.arp 	sentReply:count 	0
attr title  "ARP replies sent, count"
scalar WirelessUnderlayNetworkOLSR.overlayTerminal[16].networkLayer.arp 	sentReq:count 	0
attr title  "ARP request sent, count"
scalar WirelessUnderlayNetworkOLSR.overlayTerminal[16].networkLayer.arp 	failedARPResolution:count 	0
attr title  "ARP failed resolutions, count"
scalar WirelessUnderlayNetworkOLSR.overlayTerminal[16].networkLayer.arp 	completedARPResolution:count 	0
attr title  "ARP completed resolutions, count"
statistic WirelessUnderlayNetworkOLSR.overlayTerminal[16].wlan[0].queue 	queueingTime:histogram
field count 0
field mean nan
field stddev nan
field sum 0
field sqrsum 0
field min nan
field max nan
attr interpolationmode  none
attr title  "queueing time, histogram"
bin	-INF	0
bin	-0.5	0
bin	-0.46666666666667	0
bin	-0.43333333333333	0
bin	-0.4	0
bin	-0.36666666666667	0
bin	-0.33333333333333	0
bin	-0.3	0
bin	-0.26666666666667	0
bin	-0.23333333333333	0
bin	-0.2	0
bin	-0.16666666666667	0
bin	-0.13333333333333	0
bin	-0.1	0
bin	-0.066666666666667	0
bin	-0.033333333333333	0
bin	-6.9388939039072e-018	0
bin	0.033333333333333	0
bin	0.066666666666667	0
bin	0.1	0
bin	0.13333333333333	0
bin	0.16666666666667	0
bin	0.2	0
bin	0.23333333333333	0
bin	0.26666666666667	0
bin	0.3	0
bin	0.33333333333333	0
bin	0.36666666666667	0
bin	0.4	0
bin	0.43333333333333	0
bin	0.46666666666667	0
bin	0.5	0
scalar WirelessUnderlayNetworkOLSR.overlayTerminal[16].wlan[0].queue 	dropPk:count 	0
attr interpolationmode  none
attr source  dropPkByQueue
attr title  "dropped packets, count"
scalar WirelessUnderlayNetworkOLSR.overlayTerminal[16].wlan[0].queue 	dropPk:sum(packetBytes) 	0
attr interpolationmode  none
attr source  dropPkByQueue
attr title  "dropped packets, sum(packetBytes)"
scalar WirelessUnderlayNetworkOLSR.overlayTerminal[16].wlan[0].queue 	queueLength:max 	0
attr interpolationmode  sample-hold
attr title  "queue length, max"
scalar WirelessUnderlayNetworkOLSR.overlayTerminal[16].wlan[0].queue 	queueLength:timeavg 	0
attr interpolationmode  sample-hold
attr title  "queue length, timeavg"
scalar WirelessUnderlayNetworkOLSR.overlayTerminal[16].wlan[0].queue 	rcvdPk:count 	0
attr interpolationmode  none
attr title  "received packets, count"
scalar WirelessUnderlayNetworkOLSR.overlayTerminal[16].wlan[0].queue 	rcvdPk:sum(packetBytes) 	0
attr interpolationmode  none
attr title  "received packets, sum(packetBytes)"
scalar WirelessUnderlayNetworkOLSR.overlayTerminal[16].wlan[0].mac 	droppedPkNotForUs:count 	0
attr interpolationmode  none
attr source  dropPkNotForUs
attr title  "packets dropped/not for us, count"
scalar WirelessUnderlayNetworkOLSR.overlayTerminal[16].wlan[0].mac 	droppedPkNotForUs:sum(packetBytes) 	0
attr interpolationmode  none
attr source  dropPkNotForUs
attr title  "packets dropped/not for us, sum(packetBytes)"
scalar WirelessUnderlayNetworkOLSR.overlayTerminal[16].wlan[0].mac 	rcvdPkFromHL:count 	0
attr interpolationmode  none
attr source  packetReceivedFromUpper
attr title  "packets received from higher layer, count"
scalar WirelessUnderlayNetworkOLSR.overlayTerminal[16].wlan[0].mac 	rcvdPkFromHL:sum(packetBytes) 	0
attr interpolationmode  none
attr source  packetReceivedFromUpper
attr title  "packets received from higher layer, sum(packetBytes)"
scalar WirelessUnderlayNetworkOLSR.overlayTerminal[16].wlan[0].mac 	passedUpPk:count 	0
attr interpolationmode  none
attr source  packetSentToUpper
attr title  "packets passed to higher layer, count"
scalar WirelessUnderlayNetworkOLSR.overlayTerminal[16].wlan[0].mac 	passedUpPk:sum(packetBytes) 	0
attr interpolationmode  none
attr source  packetSentToUpper
attr title  "packets passed to higher layer, sum(packetBytes)"
scalar WirelessUnderlayNetworkOLSR.overlayTerminal[16].wlan[0].mac 	rcvdPkFromLL:count 	0
attr interpolationmode  none
attr source  packetReceivedFromLower
attr title  "packets received from lower layer, count"
scalar WirelessUnderlayNetworkOLSR.overlayTerminal[16].wlan[0].mac 	rcvdPkFromLL:sum(packetBytes) 	0
attr interpolationmode  none
attr source  packetReceivedFromLower
attr title  "packets received from lower layer, sum(packetBytes)"
scalar WirelessUnderlayNetworkOLSR.overlayTerminal[16].wlan[0].mac 	sentDownPk:count 	0
attr interpolationmode  none
attr source  packetSentToLower
attr title  "packets sent to lower layer, count"
scalar WirelessUnderlayNetworkOLSR.overlayTerminal[16].wlan[0].mac 	sentDownPk:sum(packetBytes) 	0
attr interpolationmode  none
attr source  packetSentToLower
attr title  "packets sent to lower layer, sum(packetBytes)"
scalar WirelessUnderlayNetworkOLSR.overlayTerminal[16].loopbackInterface.lo 	rcvdPkFromHL:count 	0
attr interpolationmode  none
attr source  packetReceivedFromUpper
attr title  "packets received from higher layer, count"
scalar WirelessUnderlayNetworkOLSR.overlayTerminal[16].loopbackInterface.lo 	rcvdPkFromHL:sum(packetBytes) 	0
attr interpolationmode  none
attr source  packetReceivedFromUpper
attr title  "packets received from higher layer, sum(packetBytes)"
scalar WirelessUnderlayNetworkOLSR.overlayTerminal[16].loopbackInterface.lo 	passedUpPk:count 	0
attr interpolationmode  none
attr source  packetSentToUpper
attr title  "packets passed to higher layer, count"
scalar WirelessUnderlayNetworkOLSR.overlayTerminal[16].loopbackInterface.lo 	passedUpPk:sum(packetBytes) 	0
attr interpolationmode  none
attr source  packetSentToUpper
attr title  "packets passed to higher layer, sum(packetBytes)"
scalar WirelessUnderlayNetworkOLSR.overlayTerminal[16].loopbackInterface.lo 	droppedPkBitError:count 	0
attr interpolationmode  none
attr source  dropPkBitError
attr title  "packets dropped/bit error, count"
scalar WirelessUnderlayNetworkOLSR.overlayTerminal[16].loopbackInterface.lo 	droppedPkBitError:sum(packetBytes) 	0
attr interpolationmode  none
attr source  dropPkBitError
attr title  "packets dropped/bit error, sum(packetBytes)"
scalar WirelessUnderlayNetworkOLSR.globalObserver.globalStatistics 	"GlobalStatistics: Simulation Time" 	17.230080668
