version 2
run Mobility_Aware_Cross_Layer_Routing_Approach_EAR_P2P-0-20220603-23:31:25-9124
attr configname Mobility_Aware_Cross_Layer_Routing_Approach_EAR_P2P
attr datetime 20220603-23:31:25
attr experiment Mobility_Aware_Cross_Layer_Routing_Approach_EAR_P2P
attr inifile omnetpp.ini
attr iterationvars ""
attr iterationvars2 $repetition=0
attr measurement ""
attr network Mobility_Aware_Cross_Layer_Routing_Approach_EAR_P2P_NW
attr processid 9124
attr repetition 0
attr replication #0
attr resultdir results
attr runnumber 0
attr seedset 0

scalar Mobility_Aware_Cross_Layer_Routing_Approach_EAR_P2P_NW.Mobilenode.relayUnit 	"number of received BPDUs from STP module" 	0
scalar Mobility_Aware_Cross_Layer_Routing_Approach_EAR_P2P_NW.Mobilenode.relayUnit 	"number of received frames from network (including BPDUs)" 	0
scalar Mobility_Aware_Cross_Layer_Routing_Approach_EAR_P2P_NW.Mobilenode.relayUnit 	"number of dropped frames (including BPDUs)" 	0
scalar Mobility_Aware_Cross_Layer_Routing_Approach_EAR_P2P_NW.Mobilenode.relayUnit 	"number of delivered BPDUs to the STP module" 	0
scalar Mobility_Aware_Cross_Layer_Routing_Approach_EAR_P2P_NW.Mobilenode.relayUnit 	"number of dispatched BPDU frames to the network" 	0
scalar Mobility_Aware_Cross_Layer_Routing_Approach_EAR_P2P_NW.Mobilenode.relayUnit 	"number of dispatched non-BDPU frames to the network" 	0
scalar Mobility_Aware_Cross_Layer_Routing_Approach_EAR_P2P_NW.Mobilenode.wlan[0].mgmt 	dropPkByQueue:count 	0
attr interpolationmode  none
attr source  dropPkByQueue
attr title  "packets dropped by queue, count"
scalar Mobility_Aware_Cross_Layer_Routing_Approach_EAR_P2P_NW.Mobilenode.wlan[0].mgmt 	dropPkByQueue:sum(packetBytes) 	0
attr interpolationmode  none
attr source  dropPkByQueue
attr title  "packets dropped by queue, sum(packetBytes)"
scalar Mobility_Aware_Cross_Layer_Routing_Approach_EAR_P2P_NW.Mobilenode.wlan[0].mgmt 	dataQueueLen:max 	0
attr interpolationmode  sample-hold
attr title  "data queue length, max"
scalar Mobility_Aware_Cross_Layer_Routing_Approach_EAR_P2P_NW.Mobilenode.wlan[0].mgmt 	dataQueueLen:timeavg 	0
attr interpolationmode  sample-hold
attr title  "data queue length, timeavg"
scalar Mobility_Aware_Cross_Layer_Routing_Approach_EAR_P2P_NW.Mobilenode.wlan[0].mac 	"number of received packets" 	0
scalar Mobility_Aware_Cross_Layer_Routing_Approach_EAR_P2P_NW.Mobilenode.wlan[0].mac 	"number of collisions" 	48
scalar Mobility_Aware_Cross_Layer_Routing_Approach_EAR_P2P_NW.Mobilenode.wlan[0].mac 	"number of internal collisions" 	0
scalar Mobility_Aware_Cross_Layer_Routing_Approach_EAR_P2P_NW.Mobilenode.wlan[0].mac 	"number of retry for AC 0" 	0
scalar Mobility_Aware_Cross_Layer_Routing_Approach_EAR_P2P_NW.Mobilenode.wlan[0].mac 	"sent and received bits" 	624
scalar Mobility_Aware_Cross_Layer_Routing_Approach_EAR_P2P_NW.Mobilenode.wlan[0].mac 	"sent packet within AC 0" 	0
scalar Mobility_Aware_Cross_Layer_Routing_Approach_EAR_P2P_NW.Mobilenode.wlan[0].mac 	"sent in TXOP " 	0
scalar Mobility_Aware_Cross_Layer_Routing_Approach_EAR_P2P_NW.Mobilenode.wlan[0].mac 	"sentWithoutRetry AC 0" 	0
scalar Mobility_Aware_Cross_Layer_Routing_Approach_EAR_P2P_NW.Mobilenode.wlan[0].mac 	"numGivenUp AC 0" 	0
scalar Mobility_Aware_Cross_Layer_Routing_Approach_EAR_P2P_NW.Mobilenode.wlan[0].mac 	"numDropped AC 0" 	0
scalar Mobility_Aware_Cross_Layer_Routing_Approach_EAR_P2P_NW.Mobilenode.wlan[0].mac 	rcvdPkFromHL:count 	1
attr interpolationmode  none
attr source  packetReceivedFromUpper
attr title  "packets received from higher layer, count"
scalar Mobility_Aware_Cross_Layer_Routing_Approach_EAR_P2P_NW.Mobilenode.wlan[0].mac 	rcvdPkFromHL:sum(packetBytes) 	78
attr interpolationmode  none
attr source  packetReceivedFromUpper
attr title  "packets received from higher layer, sum(packetBytes)"
scalar Mobility_Aware_Cross_Layer_Routing_Approach_EAR_P2P_NW.Mobilenode.wlan[0].mac 	passedUpPk:count 	33
attr interpolationmode  none
attr source  packetSentToUpper
attr title  "packets passed to higher layer, count"
scalar Mobility_Aware_Cross_Layer_Routing_Approach_EAR_P2P_NW.Mobilenode.wlan[0].mac 	passedUpPk:sum(packetBytes) 	2574
attr interpolationmode  none
attr source  packetSentToUpper
attr title  "packets passed to higher layer, sum(packetBytes)"
scalar Mobility_Aware_Cross_Layer_Routing_Approach_EAR_P2P_NW.Mobilenode.wlan[0].mac 	rcvdPkFromLL:count 	81
attr interpolationmode  none
attr source  packetReceivedFromLower
attr title  "packets received from lower layer, count"
scalar Mobility_Aware_Cross_Layer_Routing_Approach_EAR_P2P_NW.Mobilenode.wlan[0].mac 	rcvdPkFromLL:sum(packetBytes) 	6318
attr interpolationmode  none
attr source  packetReceivedFromLower
attr title  "packets received from lower layer, sum(packetBytes)"
scalar Mobility_Aware_Cross_Layer_Routing_Approach_EAR_P2P_NW.Mobilenode.wlan[0].mac 	sentDownPk:count 	1
attr interpolationmode  none
attr source  packetSentToLower
attr title  "packets sent to lower layer, count"
scalar Mobility_Aware_Cross_Layer_Routing_Approach_EAR_P2P_NW.Mobilenode.wlan[0].mac 	sentDownPk:sum(packetBytes) 	78
attr interpolationmode  none
attr source  packetSentToLower
attr title  "packets sent to lower layer, sum(packetBytes)"
scalar Mobility_Aware_Cross_Layer_Routing_Approach_EAR_P2P_NW.Mobilenode.wlan[0].radio 	lossRate:min 	0.52
attr interpolationmode  backward-sample-hold
attr title  "packet loss rate, min"
scalar Mobility_Aware_Cross_Layer_Routing_Approach_EAR_P2P_NW.Mobilenode.wlan[0].radio 	lossRate:max 	0.52
attr interpolationmode  backward-sample-hold
attr title  "packet loss rate, max"
scalar Mobility_Aware_Cross_Layer_Routing_Approach_EAR_P2P_NW.Mobilenode.wlan[0].radio 	lossRate:timeavg 	0.52
attr interpolationmode  backward-sample-hold
attr title  "packet loss rate, timeavg"
statistic Mobility_Aware_Cross_Layer_Routing_Approach_EAR_P2P_NW.Mobilenode.wlan[0].radio 	channelNo:histogram
field count 1
field mean 0
field stddev nan
field sum 0
field sqrsum 0
field min 0
field max 0
attr interpolationmode  sample-hold
attr title  "channel no, histogram"
bin	-INF	0
bin	-0.5	0
bin	-0.46666666666667	0
bin	-0.43333333333333	0
bin	-0.4	0
bin	-0.36666666666667	0
bin	-0.33333333333333	0
bin	-0.3	0
bin	-0.26666666666667	0
bin	-0.23333333333333	0
bin	-0.2	0
bin	-0.16666666666667	0
bin	-0.13333333333333	0
bin	-0.1	0
bin	-0.066666666666667	0
bin	-0.033333333333333	0
bin	-6.9388939039072e-018	1
bin	0.033333333333333	0
bin	0.066666666666667	0
bin	0.1	0
bin	0.13333333333333	0
bin	0.16666666666667	0
bin	0.2	0
bin	0.23333333333333	0
bin	0.26666666666667	0
bin	0.3	0
bin	0.33333333333333	0
bin	0.36666666666667	0
bin	0.4	0
bin	0.43333333333333	0
bin	0.46666666666667	0
bin	0.5	0
scalar Mobility_Aware_Cross_Layer_Routing_Approach_EAR_P2P_NW.Mobilenode.wlan[0].radio 	radioState:count 	182
attr interpolationmode  sample-hold
attr title  "radio state (enum), count"
scalar Mobility_Aware_Cross_Layer_Routing_Approach_EAR_P2P_NW.Mobilenode.wlan[0].radio 	bitrate:min 	2000000
attr interpolationmode  sample-hold
attr title  "tx bitrate, min"
attr unit  bps
scalar Mobility_Aware_Cross_Layer_Routing_Approach_EAR_P2P_NW.Mobilenode.wlan[0].radio 	bitrate:max 	2000000
attr interpolationmode  sample-hold
attr title  "tx bitrate, max"
attr unit  bps
scalar Mobility_Aware_Cross_Layer_Routing_Approach_EAR_P2P_NW.Mobilenode.wlan[0].radio 	bitrate:timeavg 	2000000
attr interpolationmode  sample-hold
attr title  "tx bitrate, timeavg"
attr unit  bps
scalar Mobility_Aware_Cross_Layer_Routing_Approach_EAR_P2P_NW.Mobilenode.wlan[1].mgmt 	dropPkByQueue:count 	0
attr interpolationmode  none
attr source  dropPkByQueue
attr title  "packets dropped by queue, count"
scalar Mobility_Aware_Cross_Layer_Routing_Approach_EAR_P2P_NW.Mobilenode.wlan[1].mgmt 	dropPkByQueue:sum(packetBytes) 	0
attr interpolationmode  none
attr source  dropPkByQueue
attr title  "packets dropped by queue, sum(packetBytes)"
scalar Mobility_Aware_Cross_Layer_Routing_Approach_EAR_P2P_NW.Mobilenode.wlan[1].mgmt 	dataQueueLen:max 	0
attr interpolationmode  sample-hold
attr title  "data queue length, max"
scalar Mobility_Aware_Cross_Layer_Routing_Approach_EAR_P2P_NW.Mobilenode.wlan[1].mgmt 	dataQueueLen:timeavg 	0
attr interpolationmode  sample-hold
attr title  "data queue length, timeavg"
scalar Mobility_Aware_Cross_Layer_Routing_Approach_EAR_P2P_NW.Mobilenode.wlan[1].mac 	"number of received packets" 	0
scalar Mobility_Aware_Cross_Layer_Routing_Approach_EAR_P2P_NW.Mobilenode.wlan[1].mac 	"number of collisions" 	49
scalar Mobility_Aware_Cross_Layer_Routing_Approach_EAR_P2P_NW.Mobilenode.wlan[1].mac 	"number of internal collisions" 	0
scalar Mobility_Aware_Cross_Layer_Routing_Approach_EAR_P2P_NW.Mobilenode.wlan[1].mac 	"number of retry for AC 0" 	0
scalar Mobility_Aware_Cross_Layer_Routing_Approach_EAR_P2P_NW.Mobilenode.wlan[1].mac 	"sent and received bits" 	624
scalar Mobility_Aware_Cross_Layer_Routing_Approach_EAR_P2P_NW.Mobilenode.wlan[1].mac 	"sent packet within AC 0" 	0
scalar Mobility_Aware_Cross_Layer_Routing_Approach_EAR_P2P_NW.Mobilenode.wlan[1].mac 	"sent in TXOP " 	0
scalar Mobility_Aware_Cross_Layer_Routing_Approach_EAR_P2P_NW.Mobilenode.wlan[1].mac 	"sentWithoutRetry AC 0" 	0
scalar Mobility_Aware_Cross_Layer_Routing_Approach_EAR_P2P_NW.Mobilenode.wlan[1].mac 	"numGivenUp AC 0" 	0
scalar Mobility_Aware_Cross_Layer_Routing_Approach_EAR_P2P_NW.Mobilenode.wlan[1].mac 	"numDropped AC 0" 	0
scalar Mobility_Aware_Cross_Layer_Routing_Approach_EAR_P2P_NW.Mobilenode.wlan[1].mac 	rcvdPkFromHL:count 	1
attr interpolationmode  none
attr source  packetReceivedFromUpper
attr title  "packets received from higher layer, count"
scalar Mobility_Aware_Cross_Layer_Routing_Approach_EAR_P2P_NW.Mobilenode.wlan[1].mac 	rcvdPkFromHL:sum(packetBytes) 	78
attr interpolationmode  none
attr source  packetReceivedFromUpper
attr title  "packets received from higher layer, sum(packetBytes)"
scalar Mobility_Aware_Cross_Layer_Routing_Approach_EAR_P2P_NW.Mobilenode.wlan[1].mac 	passedUpPk:count 	32
attr interpolationmode  none
attr source  packetSentToUpper
attr title  "packets passed to higher layer, count"
scalar Mobility_Aware_Cross_Layer_Routing_Approach_EAR_P2P_NW.Mobilenode.wlan[1].mac 	passedUpPk:sum(packetBytes) 	2496
attr interpolationmode  none
attr source  packetSentToUpper
attr title  "packets passed to higher layer, sum(packetBytes)"
scalar Mobility_Aware_Cross_Layer_Routing_Approach_EAR_P2P_NW.Mobilenode.wlan[1].mac 	rcvdPkFromLL:count 	81
attr interpolationmode  none
attr source  packetReceivedFromLower
attr title  "packets received from lower layer, count"
scalar Mobility_Aware_Cross_Layer_Routing_Approach_EAR_P2P_NW.Mobilenode.wlan[1].mac 	rcvdPkFromLL:sum(packetBytes) 	6318
attr interpolationmode  none
attr source  packetReceivedFromLower
attr title  "packets received from lower layer, sum(packetBytes)"
scalar Mobility_Aware_Cross_Layer_Routing_Approach_EAR_P2P_NW.Mobilenode.wlan[1].mac 	sentDownPk:count 	1
attr interpolationmode  none
attr source  packetSentToLower
attr title  "packets sent to lower layer, count"
scalar Mobility_Aware_Cross_Layer_Routing_Approach_EAR_P2P_NW.Mobilenode.wlan[1].mac 	sentDownPk:sum(packetBytes) 	78
attr interpolationmode  none
attr source  packetSentToLower
attr title  "packets sent to lower layer, sum(packetBytes)"
scalar Mobility_Aware_Cross_Layer_Routing_Approach_EAR_P2P_NW.Mobilenode.wlan[1].radio 	lossRate:min 	0.52
attr interpolationmode  backward-sample-hold
attr title  "packet loss rate, min"
scalar Mobility_Aware_Cross_Layer_Routing_Approach_EAR_P2P_NW.Mobilenode.wlan[1].radio 	lossRate:max 	0.52
attr interpolationmode  backward-sample-hold
attr title  "packet loss rate, max"
scalar Mobility_Aware_Cross_Layer_Routing_Approach_EAR_P2P_NW.Mobilenode.wlan[1].radio 	lossRate:timeavg 	0.52
attr interpolationmode  backward-sample-hold
attr title  "packet loss rate, timeavg"
statistic Mobility_Aware_Cross_Layer_Routing_Approach_EAR_P2P_NW.Mobilenode.wlan[1].radio 	channelNo:histogram
field count 1
field mean 0
field stddev nan
field sum 0
field sqrsum 0
field min 0
field max 0
attr interpolationmode  sample-hold
attr title  "channel no, histogram"
bin	-INF	0
bin	-0.5	0
bin	-0.46666666666667	0
bin	-0.43333333333333	0
bin	-0.4	0
bin	-0.36666666666667	0
bin	-0.33333333333333	0
bin	-0.3	0
bin	-0.26666666666667	0
bin	-0.23333333333333	0
bin	-0.2	0
bin	-0.16666666666667	0
bin	-0.13333333333333	0
bin	-0.1	0
bin	-0.066666666666667	0
bin	-0.033333333333333	0
bin	-6.9388939039072e-018	1
bin	0.033333333333333	0
bin	0.066666666666667	0
bin	0.1	0
bin	0.13333333333333	0
bin	0.16666666666667	0
bin	0.2	0
bin	0.23333333333333	0
bin	0.26666666666667	0
bin	0.3	0
bin	0.33333333333333	0
bin	0.36666666666667	0
bin	0.4	0
bin	0.43333333333333	0
bin	0.46666666666667	0
bin	0.5	0
scalar Mobility_Aware_Cross_Layer_Routing_Approach_EAR_P2P_NW.Mobilenode.wlan[1].radio 	radioState:count 	182
attr interpolationmode  sample-hold
attr title  "radio state (enum), count"
scalar Mobility_Aware_Cross_Layer_Routing_Approach_EAR_P2P_NW.Mobilenode.wlan[1].radio 	bitrate:min 	2000000
attr interpolationmode  sample-hold
attr title  "tx bitrate, min"
attr unit  bps
scalar Mobility_Aware_Cross_Layer_Routing_Approach_EAR_P2P_NW.Mobilenode.wlan[1].radio 	bitrate:max 	2000000
attr interpolationmode  sample-hold
attr title  "tx bitrate, max"
attr unit  bps
scalar Mobility_Aware_Cross_Layer_Routing_Approach_EAR_P2P_NW.Mobilenode.wlan[1].radio 	bitrate:timeavg 	2000000
attr interpolationmode  sample-hold
attr title  "tx bitrate, timeavg"
attr unit  bps
scalar Mobility_Aware_Cross_Layer_Routing_Approach_EAR_P2P_NW.Mobilenode.wlan[2].mgmt 	dropPkByQueue:count 	0
attr interpolationmode  none
attr source  dropPkByQueue
attr title  "packets dropped by queue, count"
scalar Mobility_Aware_Cross_Layer_Routing_Approach_EAR_P2P_NW.Mobilenode.wlan[2].mgmt 	dropPkByQueue:sum(packetBytes) 	0
attr interpolationmode  none
attr source  dropPkByQueue
attr title  "packets dropped by queue, sum(packetBytes)"
scalar Mobility_Aware_Cross_Layer_Routing_Approach_EAR_P2P_NW.Mobilenode.wlan[2].mgmt 	dataQueueLen:max 	0
attr interpolationmode  sample-hold
attr title  "data queue length, max"
scalar Mobility_Aware_Cross_Layer_Routing_Approach_EAR_P2P_NW.Mobilenode.wlan[2].mgmt 	dataQueueLen:timeavg 	0
attr interpolationmode  sample-hold
attr title  "data queue length, timeavg"
scalar Mobility_Aware_Cross_Layer_Routing_Approach_EAR_P2P_NW.Mobilenode.wlan[2].mac 	"number of received packets" 	0
scalar Mobility_Aware_Cross_Layer_Routing_Approach_EAR_P2P_NW.Mobilenode.wlan[2].mac 	"number of collisions" 	49
scalar Mobility_Aware_Cross_Layer_Routing_Approach_EAR_P2P_NW.Mobilenode.wlan[2].mac 	"number of internal collisions" 	0
scalar Mobility_Aware_Cross_Layer_Routing_Approach_EAR_P2P_NW.Mobilenode.wlan[2].mac 	"number of retry for AC 0" 	0
scalar Mobility_Aware_Cross_Layer_Routing_Approach_EAR_P2P_NW.Mobilenode.wlan[2].mac 	"sent and received bits" 	624
scalar Mobility_Aware_Cross_Layer_Routing_Approach_EAR_P2P_NW.Mobilenode.wlan[2].mac 	"sent packet within AC 0" 	0
scalar Mobility_Aware_Cross_Layer_Routing_Approach_EAR_P2P_NW.Mobilenode.wlan[2].mac 	"sent in TXOP " 	0
scalar Mobility_Aware_Cross_Layer_Routing_Approach_EAR_P2P_NW.Mobilenode.wlan[2].mac 	"sentWithoutRetry AC 0" 	0
scalar Mobility_Aware_Cross_Layer_Routing_Approach_EAR_P2P_NW.Mobilenode.wlan[2].mac 	"numGivenUp AC 0" 	0
scalar Mobility_Aware_Cross_Layer_Routing_Approach_EAR_P2P_NW.Mobilenode.wlan[2].mac 	"numDropped AC 0" 	0
scalar Mobility_Aware_Cross_Layer_Routing_Approach_EAR_P2P_NW.Mobilenode.wlan[2].mac 	rcvdPkFromHL:count 	1
attr interpolationmode  none
attr source  packetReceivedFromUpper
attr title  "packets received from higher layer, count"
scalar Mobility_Aware_Cross_Layer_Routing_Approach_EAR_P2P_NW.Mobilenode.wlan[2].mac 	rcvdPkFromHL:sum(packetBytes) 	78
attr interpolationmode  none
attr source  packetReceivedFromUpper
attr title  "packets received from higher layer, sum(packetBytes)"
scalar Mobility_Aware_Cross_Layer_Routing_Approach_EAR_P2P_NW.Mobilenode.wlan[2].mac 	passedUpPk:count 	32
attr interpolationmode  none
attr source  packetSentToUpper
attr title  "packets passed to higher layer, count"
scalar Mobility_Aware_Cross_Layer_Routing_Approach_EAR_P2P_NW.Mobilenode.wlan[2].mac 	passedUpPk:sum(packetBytes) 	2496
attr interpolationmode  none
attr source  packetSentToUpper
attr title  "packets passed to higher layer, sum(packetBytes)"
scalar Mobility_Aware_Cross_Layer_Routing_Approach_EAR_P2P_NW.Mobilenode.wlan[2].mac 	rcvdPkFromLL:count 	81
attr interpolationmode  none
attr source  packetReceivedFromLower
attr title  "packets received from lower layer, count"
scalar Mobility_Aware_Cross_Layer_Routing_Approach_EAR_P2P_NW.Mobilenode.wlan[2].mac 	rcvdPkFromLL:sum(packetBytes) 	6318
attr interpolationmode  none
attr source  packetReceivedFromLower
attr title  "packets received from lower layer, sum(packetBytes)"
scalar Mobility_Aware_Cross_Layer_Routing_Approach_EAR_P2P_NW.Mobilenode.wlan[2].mac 	sentDownPk:count 	1
attr interpolationmode  none
attr source  packetSentToLower
attr title  "packets sent to lower layer, count"
scalar Mobility_Aware_Cross_Layer_Routing_Approach_EAR_P2P_NW.Mobilenode.wlan[2].mac 	sentDownPk:sum(packetBytes) 	78
attr interpolationmode  none
attr source  packetSentToLower
attr title  "packets sent to lower layer, sum(packetBytes)"
scalar Mobility_Aware_Cross_Layer_Routing_Approach_EAR_P2P_NW.Mobilenode.wlan[2].radio 	lossRate:min 	0.52
attr interpolationmode  backward-sample-hold
attr title  "packet loss rate, min"
scalar Mobility_Aware_Cross_Layer_Routing_Approach_EAR_P2P_NW.Mobilenode.wlan[2].radio 	lossRate:max 	0.52
attr interpolationmode  backward-sample-hold
attr title  "packet loss rate, max"
scalar Mobility_Aware_Cross_Layer_Routing_Approach_EAR_P2P_NW.Mobilenode.wlan[2].radio 	lossRate:timeavg 	0.52
attr interpolationmode  backward-sample-hold
attr title  "packet loss rate, timeavg"
statistic Mobility_Aware_Cross_Layer_Routing_Approach_EAR_P2P_NW.Mobilenode.wlan[2].radio 	channelNo:histogram
field count 1
field mean 0
field stddev nan
field sum 0
field sqrsum 0
field min 0
field max 0
attr interpolationmode  sample-hold
attr title  "channel no, histogram"
bin	-INF	0
bin	-0.5	0
bin	-0.46666666666667	0
bin	-0.43333333333333	0
bin	-0.4	0
bin	-0.36666666666667	0
bin	-0.33333333333333	0
bin	-0.3	0
bin	-0.26666666666667	0
bin	-0.23333333333333	0
bin	-0.2	0
bin	-0.16666666666667	0
bin	-0.13333333333333	0
bin	-0.1	0
bin	-0.066666666666667	0
bin	-0.033333333333333	0
bin	-6.9388939039072e-018	1
bin	0.033333333333333	0
bin	0.066666666666667	0
bin	0.1	0
bin	0.13333333333333	0
bin	0.16666666666667	0
bin	0.2	0
bin	0.23333333333333	0
bin	0.26666666666667	0
bin	0.3	0
bin	0.33333333333333	0
bin	0.36666666666667	0
bin	0.4	0
bin	0.43333333333333	0
bin	0.46666666666667	0
bin	0.5	0
scalar Mobility_Aware_Cross_Layer_Routing_Approach_EAR_P2P_NW.Mobilenode.wlan[2].radio 	radioState:count 	182
attr interpolationmode  sample-hold
attr title  "radio state (enum), count"
scalar Mobility_Aware_Cross_Layer_Routing_Approach_EAR_P2P_NW.Mobilenode.wlan[2].radio 	bitrate:min 	2000000
attr interpolationmode  sample-hold
attr title  "tx bitrate, min"
attr unit  bps
scalar Mobility_Aware_Cross_Layer_Routing_Approach_EAR_P2P_NW.Mobilenode.wlan[2].radio 	bitrate:max 	2000000
attr interpolationmode  sample-hold
attr title  "tx bitrate, max"
attr unit  bps
scalar Mobility_Aware_Cross_Layer_Routing_Approach_EAR_P2P_NW.Mobilenode.wlan[2].radio 	bitrate:timeavg 	2000000
attr interpolationmode  sample-hold
attr title  "tx bitrate, timeavg"
attr unit  bps
scalar Mobility_Aware_Cross_Layer_Routing_Approach_EAR_P2P_NW.Mobilenode.wlan[3].mgmt 	dropPkByQueue:count 	0
attr interpolationmode  none
attr source  dropPkByQueue
attr title  "packets dropped by queue, count"
scalar Mobility_Aware_Cross_Layer_Routing_Approach_EAR_P2P_NW.Mobilenode.wlan[3].mgmt 	dropPkByQueue:sum(packetBytes) 	0
attr interpolationmode  none
attr source  dropPkByQueue
attr title  "packets dropped by queue, sum(packetBytes)"
scalar Mobility_Aware_Cross_Layer_Routing_Approach_EAR_P2P_NW.Mobilenode.wlan[3].mgmt 	dataQueueLen:max 	0
attr interpolationmode  sample-hold
attr title  "data queue length, max"
scalar Mobility_Aware_Cross_Layer_Routing_Approach_EAR_P2P_NW.Mobilenode.wlan[3].mgmt 	dataQueueLen:timeavg 	0
attr interpolationmode  sample-hold
attr title  "data queue length, timeavg"
scalar Mobility_Aware_Cross_Layer_Routing_Approach_EAR_P2P_NW.Mobilenode.wlan[3].mac 	"number of received packets" 	0
scalar Mobility_Aware_Cross_Layer_Routing_Approach_EAR_P2P_NW.Mobilenode.wlan[3].mac 	"number of collisions" 	48
scalar Mobility_Aware_Cross_Layer_Routing_Approach_EAR_P2P_NW.Mobilenode.wlan[3].mac 	"number of internal collisions" 	0
scalar Mobility_Aware_Cross_Layer_Routing_Approach_EAR_P2P_NW.Mobilenode.wlan[3].mac 	"number of retry for AC 0" 	0
scalar Mobility_Aware_Cross_Layer_Routing_Approach_EAR_P2P_NW.Mobilenode.wlan[3].mac 	"sent and received bits" 	0
scalar Mobility_Aware_Cross_Layer_Routing_Approach_EAR_P2P_NW.Mobilenode.wlan[3].mac 	"sent packet within AC 0" 	0
scalar Mobility_Aware_Cross_Layer_Routing_Approach_EAR_P2P_NW.Mobilenode.wlan[3].mac 	"sent in TXOP " 	0
scalar Mobility_Aware_Cross_Layer_Routing_Approach_EAR_P2P_NW.Mobilenode.wlan[3].mac 	"sentWithoutRetry AC 0" 	0
scalar Mobility_Aware_Cross_Layer_Routing_Approach_EAR_P2P_NW.Mobilenode.wlan[3].mac 	"numGivenUp AC 0" 	0
scalar Mobility_Aware_Cross_Layer_Routing_Approach_EAR_P2P_NW.Mobilenode.wlan[3].mac 	"numDropped AC 0" 	0
scalar Mobility_Aware_Cross_Layer_Routing_Approach_EAR_P2P_NW.Mobilenode.wlan[3].mac 	rcvdPkFromHL:count 	1
attr interpolationmode  none
attr source  packetReceivedFromUpper
attr title  "packets received from higher layer, count"
scalar Mobility_Aware_Cross_Layer_Routing_Approach_EAR_P2P_NW.Mobilenode.wlan[3].mac 	rcvdPkFromHL:sum(packetBytes) 	78
attr interpolationmode  none
attr source  packetReceivedFromUpper
attr title  "packets received from higher layer, sum(packetBytes)"
scalar Mobility_Aware_Cross_Layer_Routing_Approach_EAR_P2P_NW.Mobilenode.wlan[3].mac 	passedUpPk:count 	34
attr interpolationmode  none
attr source  packetSentToUpper
attr title  "packets passed to higher layer, count"
scalar Mobility_Aware_Cross_Layer_Routing_Approach_EAR_P2P_NW.Mobilenode.wlan[3].mac 	passedUpPk:sum(packetBytes) 	2652
attr interpolationmode  none
attr source  packetSentToUpper
attr title  "packets passed to higher layer, sum(packetBytes)"
scalar Mobility_Aware_Cross_Layer_Routing_Approach_EAR_P2P_NW.Mobilenode.wlan[3].mac 	rcvdPkFromLL:count 	82
attr interpolationmode  none
attr source  packetReceivedFromLower
attr title  "packets received from lower layer, count"
scalar Mobility_Aware_Cross_Layer_Routing_Approach_EAR_P2P_NW.Mobilenode.wlan[3].mac 	rcvdPkFromLL:sum(packetBytes) 	6396
attr interpolationmode  none
attr source  packetReceivedFromLower
attr title  "packets received from lower layer, sum(packetBytes)"
scalar Mobility_Aware_Cross_Layer_Routing_Approach_EAR_P2P_NW.Mobilenode.wlan[3].mac 	sentDownPk:count 	0
attr interpolationmode  none
attr source  packetSentToLower
attr title  "packets sent to lower layer, count"
scalar Mobility_Aware_Cross_Layer_Routing_Approach_EAR_P2P_NW.Mobilenode.wlan[3].mac 	sentDownPk:sum(packetBytes) 	0
attr interpolationmode  none
attr source  packetSentToLower
attr title  "packets sent to lower layer, sum(packetBytes)"
scalar Mobility_Aware_Cross_Layer_Routing_Approach_EAR_P2P_NW.Mobilenode.wlan[3].radio 	lossRate:min 	0.5
attr interpolationmode  backward-sample-hold
attr title  "packet loss rate, min"
scalar Mobility_Aware_Cross_Layer_Routing_Approach_EAR_P2P_NW.Mobilenode.wlan[3].radio 	lossRate:max 	0.5
attr interpolationmode  backward-sample-hold
attr title  "packet loss rate, max"
scalar Mobility_Aware_Cross_Layer_Routing_Approach_EAR_P2P_NW.Mobilenode.wlan[3].radio 	lossRate:timeavg 	0.5
attr interpolationmode  backward-sample-hold
attr title  "packet loss rate, timeavg"
statistic Mobility_Aware_Cross_Layer_Routing_Approach_EAR_P2P_NW.Mobilenode.wlan[3].radio 	channelNo:histogram
field count 1
field mean 0
field stddev nan
field sum 0
field sqrsum 0
field min 0
field max 0
attr interpolationmode  sample-hold
attr title  "channel no, histogram"
bin	-INF	0
bin	-0.5	0
bin	-0.46666666666667	0
bin	-0.43333333333333	0
bin	-0.4	0
bin	-0.36666666666667	0
bin	-0.33333333333333	0
bin	-0.3	0
bin	-0.26666666666667	0
bin	-0.23333333333333	0
bin	-0.2	0
bin	-0.16666666666667	0
bin	-0.13333333333333	0
bin	-0.1	0
bin	-0.066666666666667	0
bin	-0.033333333333333	0
bin	-6.9388939039072e-018	1
bin	0.033333333333333	0
bin	0.066666666666667	0
bin	0.1	0
bin	0.13333333333333	0
bin	0.16666666666667	0
bin	0.2	0
bin	0.23333333333333	0
bin	0.26666666666667	0
bin	0.3	0
bin	0.33333333333333	0
bin	0.36666666666667	0
bin	0.4	0
bin	0.43333333333333	0
bin	0.46666666666667	0
bin	0.5	0
scalar Mobility_Aware_Cross_Layer_Routing_Approach_EAR_P2P_NW.Mobilenode.wlan[3].radio 	radioState:count 	181
attr interpolationmode  sample-hold
attr title  "radio state (enum), count"
scalar Mobility_Aware_Cross_Layer_Routing_Approach_EAR_P2P_NW.Mobilenode.wlan[3].radio 	bitrate:min 	2000000
attr interpolationmode  sample-hold
attr title  "tx bitrate, min"
attr unit  bps
scalar Mobility_Aware_Cross_Layer_Routing_Approach_EAR_P2P_NW.Mobilenode.wlan[3].radio 	bitrate:max 	2000000
attr interpolationmode  sample-hold
attr title  "tx bitrate, max"
attr unit  bps
scalar Mobility_Aware_Cross_Layer_Routing_Approach_EAR_P2P_NW.Mobilenode.wlan[3].radio 	bitrate:timeavg 	2000000
attr interpolationmode  sample-hold
attr title  "tx bitrate, timeavg"
attr unit  bps
scalar Mobility_Aware_Cross_Layer_Routing_Approach_EAR_P2P_NW.Mobilenode.wlan[4].mgmt 	dropPkByQueue:count 	0
attr interpolationmode  none
attr source  dropPkByQueue
attr title  "packets dropped by queue, count"
scalar Mobility_Aware_Cross_Layer_Routing_Approach_EAR_P2P_NW.Mobilenode.wlan[4].mgmt 	dropPkByQueue:sum(packetBytes) 	0
attr interpolationmode  none
attr source  dropPkByQueue
attr title  "packets dropped by queue, sum(packetBytes)"
scalar Mobility_Aware_Cross_Layer_Routing_Approach_EAR_P2P_NW.Mobilenode.wlan[4].mgmt 	dataQueueLen:max 	0
attr interpolationmode  sample-hold
attr title  "data queue length, max"
scalar Mobility_Aware_Cross_Layer_Routing_Approach_EAR_P2P_NW.Mobilenode.wlan[4].mgmt 	dataQueueLen:timeavg 	0
attr interpolationmode  sample-hold
attr title  "data queue length, timeavg"
scalar Mobility_Aware_Cross_Layer_Routing_Approach_EAR_P2P_NW.Mobilenode.wlan[4].mac 	"number of received packets" 	0
scalar Mobility_Aware_Cross_Layer_Routing_Approach_EAR_P2P_NW.Mobilenode.wlan[4].mac 	"number of collisions" 	50
scalar Mobility_Aware_Cross_Layer_Routing_Approach_EAR_P2P_NW.Mobilenode.wlan[4].mac 	"number of internal collisions" 	0
scalar Mobility_Aware_Cross_Layer_Routing_Approach_EAR_P2P_NW.Mobilenode.wlan[4].mac 	"number of retry for AC 0" 	0
scalar Mobility_Aware_Cross_Layer_Routing_Approach_EAR_P2P_NW.Mobilenode.wlan[4].mac 	"sent and received bits" 	624
scalar Mobility_Aware_Cross_Layer_Routing_Approach_EAR_P2P_NW.Mobilenode.wlan[4].mac 	"sent packet within AC 0" 	0
scalar Mobility_Aware_Cross_Layer_Routing_Approach_EAR_P2P_NW.Mobilenode.wlan[4].mac 	"sent in TXOP " 	0
scalar Mobility_Aware_Cross_Layer_Routing_Approach_EAR_P2P_NW.Mobilenode.wlan[4].mac 	"sentWithoutRetry AC 0" 	0
scalar Mobility_Aware_Cross_Layer_Routing_Approach_EAR_P2P_NW.Mobilenode.wlan[4].mac 	"numGivenUp AC 0" 	0
scalar Mobility_Aware_Cross_Layer_Routing_Approach_EAR_P2P_NW.Mobilenode.wlan[4].mac 	"numDropped AC 0" 	0
scalar Mobility_Aware_Cross_Layer_Routing_Approach_EAR_P2P_NW.Mobilenode.wlan[4].mac 	rcvdPkFromHL:count 	1
attr interpolationmode  none
attr source  packetReceivedFromUpper
attr title  "packets received from higher layer, count"
scalar Mobility_Aware_Cross_Layer_Routing_Approach_EAR_P2P_NW.Mobilenode.wlan[4].mac 	rcvdPkFromHL:sum(packetBytes) 	78
attr interpolationmode  none
attr source  packetReceivedFromUpper
attr title  "packets received from higher layer, sum(packetBytes)"
scalar Mobility_Aware_Cross_Layer_Routing_Approach_EAR_P2P_NW.Mobilenode.wlan[4].mac 	passedUpPk:count 	31
attr interpolationmode  none
attr source  packetSentToUpper
attr title  "packets passed to higher layer, count"
scalar Mobility_Aware_Cross_Layer_Routing_Approach_EAR_P2P_NW.Mobilenode.wlan[4].mac 	passedUpPk:sum(packetBytes) 	2418
attr interpolationmode  none
attr source  packetSentToUpper
attr title  "packets passed to higher layer, sum(packetBytes)"
scalar Mobility_Aware_Cross_Layer_Routing_Approach_EAR_P2P_NW.Mobilenode.wlan[4].mac 	rcvdPkFromLL:count 	81
attr interpolationmode  none
attr source  packetReceivedFromLower
attr title  "packets received from lower layer, count"
scalar Mobility_Aware_Cross_Layer_Routing_Approach_EAR_P2P_NW.Mobilenode.wlan[4].mac 	rcvdPkFromLL:sum(packetBytes) 	6318
attr interpolationmode  none
attr source  packetReceivedFromLower
attr title  "packets received from lower layer, sum(packetBytes)"
scalar Mobility_Aware_Cross_Layer_Routing_Approach_EAR_P2P_NW.Mobilenode.wlan[4].mac 	sentDownPk:count 	1
attr interpolationmode  none
attr source  packetSentToLower
attr title  "packets sent to lower layer, count"
scalar Mobility_Aware_Cross_Layer_Routing_Approach_EAR_P2P_NW.Mobilenode.wlan[4].mac 	sentDownPk:sum(packetBytes) 	78
attr interpolationmode  none
attr source  packetSentToLower
attr title  "packets sent to lower layer, sum(packetBytes)"
scalar Mobility_Aware_Cross_Layer_Routing_Approach_EAR_P2P_NW.Mobilenode.wlan[4].radio 	lossRate:min 	0.56
attr interpolationmode  backward-sample-hold
attr title  "packet loss rate, min"
scalar Mobility_Aware_Cross_Layer_Routing_Approach_EAR_P2P_NW.Mobilenode.wlan[4].radio 	lossRate:max 	0.56
attr interpolationmode  backward-sample-hold
attr title  "packet loss rate, max"
scalar Mobility_Aware_Cross_Layer_Routing_Approach_EAR_P2P_NW.Mobilenode.wlan[4].radio 	lossRate:timeavg 	0.56
attr interpolationmode  backward-sample-hold
attr title  "packet loss rate, timeavg"
statistic Mobility_Aware_Cross_Layer_Routing_Approach_EAR_P2P_NW.Mobilenode.wlan[4].radio 	channelNo:histogram
field count 1
field mean 0
field stddev nan
field sum 0
field sqrsum 0
field min 0
field max 0
attr interpolationmode  sample-hold
attr title  "channel no, histogram"
bin	-INF	0
bin	-0.5	0
bin	-0.46666666666667	0
bin	-0.43333333333333	0
bin	-0.4	0
bin	-0.36666666666667	0
bin	-0.33333333333333	0
bin	-0.3	0
bin	-0.26666666666667	0
bin	-0.23333333333333	0
bin	-0.2	0
bin	-0.16666666666667	0
bin	-0.13333333333333	0
bin	-0.1	0
bin	-0.066666666666667	0
bin	-0.033333333333333	0
bin	-6.9388939039072e-018	1
bin	0.033333333333333	0
bin	0.066666666666667	0
bin	0.1	0
bin	0.13333333333333	0
bin	0.16666666666667	0
bin	0.2	0
bin	0.23333333333333	0
bin	0.26666666666667	0
bin	0.3	0
bin	0.33333333333333	0
bin	0.36666666666667	0
bin	0.4	0
bin	0.43333333333333	0
bin	0.46666666666667	0
bin	0.5	0
scalar Mobility_Aware_Cross_Layer_Routing_Approach_EAR_P2P_NW.Mobilenode.wlan[4].radio 	radioState:count 	181
attr interpolationmode  sample-hold
attr title  "radio state (enum), count"
scalar Mobility_Aware_Cross_Layer_Routing_Approach_EAR_P2P_NW.Mobilenode.wlan[4].radio 	bitrate:min 	2000000
attr interpolationmode  sample-hold
attr title  "tx bitrate, min"
attr unit  bps
scalar Mobility_Aware_Cross_Layer_Routing_Approach_EAR_P2P_NW.Mobilenode.wlan[4].radio 	bitrate:max 	2000000
attr interpolationmode  sample-hold
attr title  "tx bitrate, max"
attr unit  bps
scalar Mobility_Aware_Cross_Layer_Routing_Approach_EAR_P2P_NW.Mobilenode.wlan[4].radio 	bitrate:timeavg 	2000000
attr interpolationmode  sample-hold
attr title  "tx bitrate, timeavg"
attr unit  bps
scalar Mobility_Aware_Cross_Layer_Routing_Approach_EAR_P2P_NW.Mobilenode.wlan[5].mgmt 	dropPkByQueue:count 	0
attr interpolationmode  none
attr source  dropPkByQueue
attr title  "packets dropped by queue, count"
scalar Mobility_Aware_Cross_Layer_Routing_Approach_EAR_P2P_NW.Mobilenode.wlan[5].mgmt 	dropPkByQueue:sum(packetBytes) 	0
attr interpolationmode  none
attr source  dropPkByQueue
attr title  "packets dropped by queue, sum(packetBytes)"
scalar Mobility_Aware_Cross_Layer_Routing_Approach_EAR_P2P_NW.Mobilenode.wlan[5].mgmt 	dataQueueLen:max 	0
attr interpolationmode  sample-hold
attr title  "data queue length, max"
scalar Mobility_Aware_Cross_Layer_Routing_Approach_EAR_P2P_NW.Mobilenode.wlan[5].mgmt 	dataQueueLen:timeavg 	0
attr interpolationmode  sample-hold
attr title  "data queue length, timeavg"
scalar Mobility_Aware_Cross_Layer_Routing_Approach_EAR_P2P_NW.Mobilenode.wlan[5].mac 	"number of received packets" 	0
scalar Mobility_Aware_Cross_Layer_Routing_Approach_EAR_P2P_NW.Mobilenode.wlan[5].mac 	"number of collisions" 	49
scalar Mobility_Aware_Cross_Layer_Routing_Approach_EAR_P2P_NW.Mobilenode.wlan[5].mac 	"number of internal collisions" 	0
scalar Mobility_Aware_Cross_Layer_Routing_Approach_EAR_P2P_NW.Mobilenode.wlan[5].mac 	"number of retry for AC 0" 	0
scalar Mobility_Aware_Cross_Layer_Routing_Approach_EAR_P2P_NW.Mobilenode.wlan[5].mac 	"sent and received bits" 	0
scalar Mobility_Aware_Cross_Layer_Routing_Approach_EAR_P2P_NW.Mobilenode.wlan[5].mac 	"sent packet within AC 0" 	0
scalar Mobility_Aware_Cross_Layer_Routing_Approach_EAR_P2P_NW.Mobilenode.wlan[5].mac 	"sent in TXOP " 	0
scalar Mobility_Aware_Cross_Layer_Routing_Approach_EAR_P2P_NW.Mobilenode.wlan[5].mac 	"sentWithoutRetry AC 0" 	0
scalar Mobility_Aware_Cross_Layer_Routing_Approach_EAR_P2P_NW.Mobilenode.wlan[5].mac 	"numGivenUp AC 0" 	0
scalar Mobility_Aware_Cross_Layer_Routing_Approach_EAR_P2P_NW.Mobilenode.wlan[5].mac 	"numDropped AC 0" 	0
scalar Mobility_Aware_Cross_Layer_Routing_Approach_EAR_P2P_NW.Mobilenode.wlan[5].mac 	rcvdPkFromHL:count 	1
attr interpolationmode  none
attr source  packetReceivedFromUpper
attr title  "packets received from higher layer, count"
scalar Mobility_Aware_Cross_Layer_Routing_Approach_EAR_P2P_NW.Mobilenode.wlan[5].mac 	rcvdPkFromHL:sum(packetBytes) 	78
attr interpolationmode  none
attr source  packetReceivedFromUpper
attr title  "packets received from higher layer, sum(packetBytes)"
scalar Mobility_Aware_Cross_Layer_Routing_Approach_EAR_P2P_NW.Mobilenode.wlan[5].mac 	passedUpPk:count 	33
attr interpolationmode  none
attr source  packetSentToUpper
attr title  "packets passed to higher layer, count"
scalar Mobility_Aware_Cross_Layer_Routing_Approach_EAR_P2P_NW.Mobilenode.wlan[5].mac 	passedUpPk:sum(packetBytes) 	2574
attr interpolationmode  none
attr source  packetSentToUpper
attr title  "packets passed to higher layer, sum(packetBytes)"
scalar Mobility_Aware_Cross_Layer_Routing_Approach_EAR_P2P_NW.Mobilenode.wlan[5].mac 	rcvdPkFromLL:count 	82
attr interpolationmode  none
attr source  packetReceivedFromLower
attr title  "packets received from lower layer, count"
scalar Mobility_Aware_Cross_Layer_Routing_Approach_EAR_P2P_NW.Mobilenode.wlan[5].mac 	rcvdPkFromLL:sum(packetBytes) 	6396
attr interpolationmode  none
attr source  packetReceivedFromLower
attr title  "packets received from lower layer, sum(packetBytes)"
scalar Mobility_Aware_Cross_Layer_Routing_Approach_EAR_P2P_NW.Mobilenode.wlan[5].mac 	sentDownPk:count 	0
attr interpolationmode  none
attr source  packetSentToLower
attr title  "packets sent to lower layer, count"
scalar Mobility_Aware_Cross_Layer_Routing_Approach_EAR_P2P_NW.Mobilenode.wlan[5].mac 	sentDownPk:sum(packetBytes) 	0
attr interpolationmode  none
attr source  packetSentToLower
attr title  "packets sent to lower layer, sum(packetBytes)"
scalar Mobility_Aware_Cross_Layer_Routing_Approach_EAR_P2P_NW.Mobilenode.wlan[5].radio 	lossRate:min 	0.52
attr interpolationmode  backward-sample-hold
attr title  "packet loss rate, min"
scalar Mobility_Aware_Cross_Layer_Routing_Approach_EAR_P2P_NW.Mobilenode.wlan[5].radio 	lossRate:max 	0.52
attr interpolationmode  backward-sample-hold
attr title  "packet loss rate, max"
scalar Mobility_Aware_Cross_Layer_Routing_Approach_EAR_P2P_NW.Mobilenode.wlan[5].radio 	lossRate:timeavg 	0.52
attr interpolationmode  backward-sample-hold
attr title  "packet loss rate, timeavg"
statistic Mobility_Aware_Cross_Layer_Routing_Approach_EAR_P2P_NW.Mobilenode.wlan[5].radio 	channelNo:histogram
field count 1
field mean 0
field stddev nan
field sum 0
field sqrsum 0
field min 0
field max 0
attr interpolationmode  sample-hold
attr title  "channel no, histogram"
bin	-INF	0
bin	-0.5	0
bin	-0.46666666666667	0
bin	-0.43333333333333	0
bin	-0.4	0
bin	-0.36666666666667	0
bin	-0.33333333333333	0
bin	-0.3	0
bin	-0.26666666666667	0
bin	-0.23333333333333	0
bin	-0.2	0
bin	-0.16666666666667	0
bin	-0.13333333333333	0
bin	-0.1	0
bin	-0.066666666666667	0
bin	-0.033333333333333	0
bin	-6.9388939039072e-018	1
bin	0.033333333333333	0
bin	0.066666666666667	0
bin	0.1	0
bin	0.13333333333333	0
bin	0.16666666666667	0
bin	0.2	0
bin	0.23333333333333	0
bin	0.26666666666667	0
bin	0.3	0
bin	0.33333333333333	0
bin	0.36666666666667	0
bin	0.4	0
bin	0.43333333333333	0
bin	0.46666666666667	0
bin	0.5	0
scalar Mobility_Aware_Cross_Layer_Routing_Approach_EAR_P2P_NW.Mobilenode.wlan[5].radio 	radioState:count 	181
attr interpolationmode  sample-hold
attr title  "radio state (enum), count"
scalar Mobility_Aware_Cross_Layer_Routing_Approach_EAR_P2P_NW.Mobilenode.wlan[5].radio 	bitrate:min 	2000000
attr interpolationmode  sample-hold
attr title  "tx bitrate, min"
attr unit  bps
scalar Mobility_Aware_Cross_Layer_Routing_Approach_EAR_P2P_NW.Mobilenode.wlan[5].radio 	bitrate:max 	2000000
attr interpolationmode  sample-hold
attr title  "tx bitrate, max"
attr unit  bps
scalar Mobility_Aware_Cross_Layer_Routing_Approach_EAR_P2P_NW.Mobilenode.wlan[5].radio 	bitrate:timeavg 	2000000
attr interpolationmode  sample-hold
attr title  "tx bitrate, timeavg"
attr unit  bps
scalar Mobility_Aware_Cross_Layer_Routing_Approach_EAR_P2P_NW.Mobilenode.wlan[6].mgmt 	dropPkByQueue:count 	0
attr interpolationmode  none
attr source  dropPkByQueue
attr title  "packets dropped by queue, count"
scalar Mobility_Aware_Cross_Layer_Routing_Approach_EAR_P2P_NW.Mobilenode.wlan[6].mgmt 	dropPkByQueue:sum(packetBytes) 	0
attr interpolationmode  none
attr source  dropPkByQueue
attr title  "packets dropped by queue, sum(packetBytes)"
scalar Mobility_Aware_Cross_Layer_Routing_Approach_EAR_P2P_NW.Mobilenode.wlan[6].mgmt 	dataQueueLen:max 	0
attr interpolationmode  sample-hold
attr title  "data queue length, max"
scalar Mobility_Aware_Cross_Layer_Routing_Approach_EAR_P2P_NW.Mobilenode.wlan[6].mgmt 	dataQueueLen:timeavg 	0
attr interpolationmode  sample-hold
attr title  "data queue length, timeavg"
scalar Mobility_Aware_Cross_Layer_Routing_Approach_EAR_P2P_NW.Mobilenode.wlan[6].mac 	"number of received packets" 	0
scalar Mobility_Aware_Cross_Layer_Routing_Approach_EAR_P2P_NW.Mobilenode.wlan[6].mac 	"number of collisions" 	50
scalar Mobility_Aware_Cross_Layer_Routing_Approach_EAR_P2P_NW.Mobilenode.wlan[6].mac 	"number of internal collisions" 	0
scalar Mobility_Aware_Cross_Layer_Routing_Approach_EAR_P2P_NW.Mobilenode.wlan[6].mac 	"number of retry for AC 0" 	0
scalar Mobility_Aware_Cross_Layer_Routing_Approach_EAR_P2P_NW.Mobilenode.wlan[6].mac 	"sent and received bits" 	624
scalar Mobility_Aware_Cross_Layer_Routing_Approach_EAR_P2P_NW.Mobilenode.wlan[6].mac 	"sent packet within AC 0" 	0
scalar Mobility_Aware_Cross_Layer_Routing_Approach_EAR_P2P_NW.Mobilenode.wlan[6].mac 	"sent in TXOP " 	0
scalar Mobility_Aware_Cross_Layer_Routing_Approach_EAR_P2P_NW.Mobilenode.wlan[6].mac 	"sentWithoutRetry AC 0" 	0
scalar Mobility_Aware_Cross_Layer_Routing_Approach_EAR_P2P_NW.Mobilenode.wlan[6].mac 	"numGivenUp AC 0" 	0
scalar Mobility_Aware_Cross_Layer_Routing_Approach_EAR_P2P_NW.Mobilenode.wlan[6].mac 	"numDropped AC 0" 	0
scalar Mobility_Aware_Cross_Layer_Routing_Approach_EAR_P2P_NW.Mobilenode.wlan[6].mac 	rcvdPkFromHL:count 	1
attr interpolationmode  none
attr source  packetReceivedFromUpper
attr title  "packets received from higher layer, count"
scalar Mobility_Aware_Cross_Layer_Routing_Approach_EAR_P2P_NW.Mobilenode.wlan[6].mac 	rcvdPkFromHL:sum(packetBytes) 	78
attr interpolationmode  none
attr source  packetReceivedFromUpper
attr title  "packets received from higher layer, sum(packetBytes)"
scalar Mobility_Aware_Cross_Layer_Routing_Approach_EAR_P2P_NW.Mobilenode.wlan[6].mac 	passedUpPk:count 	31
attr interpolationmode  none
attr source  packetSentToUpper
attr title  "packets passed to higher layer, count"
scalar Mobility_Aware_Cross_Layer_Routing_Approach_EAR_P2P_NW.Mobilenode.wlan[6].mac 	passedUpPk:sum(packetBytes) 	2418
attr interpolationmode  none
attr source  packetSentToUpper
attr title  "packets passed to higher layer, sum(packetBytes)"
scalar Mobility_Aware_Cross_Layer_Routing_Approach_EAR_P2P_NW.Mobilenode.wlan[6].mac 	rcvdPkFromLL:count 	81
attr interpolationmode  none
attr source  packetReceivedFromLower
attr title  "packets received from lower layer, count"
scalar Mobility_Aware_Cross_Layer_Routing_Approach_EAR_P2P_NW.Mobilenode.wlan[6].mac 	rcvdPkFromLL:sum(packetBytes) 	6318
attr interpolationmode  none
attr source  packetReceivedFromLower
attr title  "packets received from lower layer, sum(packetBytes)"
scalar Mobility_Aware_Cross_Layer_Routing_Approach_EAR_P2P_NW.Mobilenode.wlan[6].mac 	sentDownPk:count 	1
attr interpolationmode  none
attr source  packetSentToLower
attr title  "packets sent to lower layer, count"
scalar Mobility_Aware_Cross_Layer_Routing_Approach_EAR_P2P_NW.Mobilenode.wlan[6].mac 	sentDownPk:sum(packetBytes) 	78
attr interpolationmode  none
attr source  packetSentToLower
attr title  "packets sent to lower layer, sum(packetBytes)"
scalar Mobility_Aware_Cross_Layer_Routing_Approach_EAR_P2P_NW.Mobilenode.wlan[6].radio 	lossRate:min 	0.52
attr interpolationmode  backward-sample-hold
attr title  "packet loss rate, min"
scalar Mobility_Aware_Cross_Layer_Routing_Approach_EAR_P2P_NW.Mobilenode.wlan[6].radio 	lossRate:max 	0.52
attr interpolationmode  backward-sample-hold
attr title  "packet loss rate, max"
scalar Mobility_Aware_Cross_Layer_Routing_Approach_EAR_P2P_NW.Mobilenode.wlan[6].radio 	lossRate:timeavg 	0.52
attr interpolationmode  backward-sample-hold
attr title  "packet loss rate, timeavg"
statistic Mobility_Aware_Cross_Layer_Routing_Approach_EAR_P2P_NW.Mobilenode.wlan[6].radio 	channelNo:histogram
field count 1
field mean 0
field stddev nan
field sum 0
field sqrsum 0
field min 0
field max 0
attr interpolationmode  sample-hold
attr title  "channel no, histogram"
bin	-INF	0
bin	-0.5	0
bin	-0.46666666666667	0
bin	-0.43333333333333	0
bin	-0.4	0
bin	-0.36666666666667	0
bin	-0.33333333333333	0
bin	-0.3	0
bin	-0.26666666666667	0
bin	-0.23333333333333	0
bin	-0.2	0
bin	-0.16666666666667	0
bin	-0.13333333333333	0
bin	-0.1	0
bin	-0.066666666666667	0
bin	-0.033333333333333	0
bin	-6.9388939039072e-018	1
bin	0.033333333333333	0
bin	0.066666666666667	0
bin	0.1	0
bin	0.13333333333333	0
bin	0.16666666666667	0
bin	0.2	0
bin	0.23333333333333	0
bin	0.26666666666667	0
bin	0.3	0
bin	0.33333333333333	0
bin	0.36666666666667	0
bin	0.4	0
bin	0.43333333333333	0
bin	0.46666666666667	0
bin	0.5	0
scalar Mobility_Aware_Cross_Layer_Routing_Approach_EAR_P2P_NW.Mobilenode.wlan[6].radio 	radioState:count 	182
attr interpolationmode  sample-hold
attr title  "radio state (enum), count"
scalar Mobility_Aware_Cross_Layer_Routing_Approach_EAR_P2P_NW.Mobilenode.wlan[6].radio 	bitrate:min 	2000000
attr interpolationmode  sample-hold
attr title  "tx bitrate, min"
attr unit  bps
scalar Mobility_Aware_Cross_Layer_Routing_Approach_EAR_P2P_NW.Mobilenode.wlan[6].radio 	bitrate:max 	2000000
attr interpolationmode  sample-hold
attr title  "tx bitrate, max"
attr unit  bps
scalar Mobility_Aware_Cross_Layer_Routing_Approach_EAR_P2P_NW.Mobilenode.wlan[6].radio 	bitrate:timeavg 	2000000
attr interpolationmode  sample-hold
attr title  "tx bitrate, timeavg"
attr unit  bps
scalar Mobility_Aware_Cross_Layer_Routing_Approach_EAR_P2P_NW.Mobilenode.wlan[7].mgmt 	dropPkByQueue:count 	0
attr interpolationmode  none
attr source  dropPkByQueue
attr title  "packets dropped by queue, count"
scalar Mobility_Aware_Cross_Layer_Routing_Approach_EAR_P2P_NW.Mobilenode.wlan[7].mgmt 	dropPkByQueue:sum(packetBytes) 	0
attr interpolationmode  none
attr source  dropPkByQueue
attr title  "packets dropped by queue, sum(packetBytes)"
scalar Mobility_Aware_Cross_Layer_Routing_Approach_EAR_P2P_NW.Mobilenode.wlan[7].mgmt 	dataQueueLen:max 	0
attr interpolationmode  sample-hold
attr title  "data queue length, max"
scalar Mobility_Aware_Cross_Layer_Routing_Approach_EAR_P2P_NW.Mobilenode.wlan[7].mgmt 	dataQueueLen:timeavg 	0
attr interpolationmode  sample-hold
attr title  "data queue length, timeavg"
scalar Mobility_Aware_Cross_Layer_Routing_Approach_EAR_P2P_NW.Mobilenode.wlan[7].mac 	"number of received packets" 	0
scalar Mobility_Aware_Cross_Layer_Routing_Approach_EAR_P2P_NW.Mobilenode.wlan[7].mac 	"number of collisions" 	50
scalar Mobility_Aware_Cross_Layer_Routing_Approach_EAR_P2P_NW.Mobilenode.wlan[7].mac 	"number of internal collisions" 	0
scalar Mobility_Aware_Cross_Layer_Routing_Approach_EAR_P2P_NW.Mobilenode.wlan[7].mac 	"number of retry for AC 0" 	0
scalar Mobility_Aware_Cross_Layer_Routing_Approach_EAR_P2P_NW.Mobilenode.wlan[7].mac 	"sent and received bits" 	0
scalar Mobility_Aware_Cross_Layer_Routing_Approach_EAR_P2P_NW.Mobilenode.wlan[7].mac 	"sent packet within AC 0" 	0
scalar Mobility_Aware_Cross_Layer_Routing_Approach_EAR_P2P_NW.Mobilenode.wlan[7].mac 	"sent in TXOP " 	0
scalar Mobility_Aware_Cross_Layer_Routing_Approach_EAR_P2P_NW.Mobilenode.wlan[7].mac 	"sentWithoutRetry AC 0" 	0
scalar Mobility_Aware_Cross_Layer_Routing_Approach_EAR_P2P_NW.Mobilenode.wlan[7].mac 	"numGivenUp AC 0" 	0
scalar Mobility_Aware_Cross_Layer_Routing_Approach_EAR_P2P_NW.Mobilenode.wlan[7].mac 	"numDropped AC 0" 	0
scalar Mobility_Aware_Cross_Layer_Routing_Approach_EAR_P2P_NW.Mobilenode.wlan[7].mac 	rcvdPkFromHL:count 	1
attr interpolationmode  none
attr source  packetReceivedFromUpper
attr title  "packets received from higher layer, count"
scalar Mobility_Aware_Cross_Layer_Routing_Approach_EAR_P2P_NW.Mobilenode.wlan[7].mac 	rcvdPkFromHL:sum(packetBytes) 	78
attr interpolationmode  none
attr source  packetReceivedFromUpper
attr title  "packets received from higher layer, sum(packetBytes)"
scalar Mobility_Aware_Cross_Layer_Routing_Approach_EAR_P2P_NW.Mobilenode.wlan[7].mac 	passedUpPk:count 	32
attr interpolationmode  none
attr source  packetSentToUpper
attr title  "packets passed to higher layer, count"
scalar Mobility_Aware_Cross_Layer_Routing_Approach_EAR_P2P_NW.Mobilenode.wlan[7].mac 	passedUpPk:sum(packetBytes) 	2496
attr interpolationmode  none
attr source  packetSentToUpper
attr title  "packets passed to higher layer, sum(packetBytes)"
scalar Mobility_Aware_Cross_Layer_Routing_Approach_EAR_P2P_NW.Mobilenode.wlan[7].mac 	rcvdPkFromLL:count 	82
attr interpolationmode  none
attr source  packetReceivedFromLower
attr title  "packets received from lower layer, count"
scalar Mobility_Aware_Cross_Layer_Routing_Approach_EAR_P2P_NW.Mobilenode.wlan[7].mac 	rcvdPkFromLL:sum(packetBytes) 	6396
attr interpolationmode  none
attr source  packetReceivedFromLower
attr title  "packets received from lower layer, sum(packetBytes)"
scalar Mobility_Aware_Cross_Layer_Routing_Approach_EAR_P2P_NW.Mobilenode.wlan[7].mac 	sentDownPk:count 	0
attr interpolationmode  none
attr source  packetSentToLower
attr title  "packets sent to lower layer, count"
scalar Mobility_Aware_Cross_Layer_Routing_Approach_EAR_P2P_NW.Mobilenode.wlan[7].mac 	sentDownPk:sum(packetBytes) 	0
attr interpolationmode  none
attr source  packetSentToLower
attr title  "packets sent to lower layer, sum(packetBytes)"
scalar Mobility_Aware_Cross_Layer_Routing_Approach_EAR_P2P_NW.Mobilenode.wlan[7].radio 	lossRate:min 	0.5
attr interpolationmode  backward-sample-hold
attr title  "packet loss rate, min"
scalar Mobility_Aware_Cross_Layer_Routing_Approach_EAR_P2P_NW.Mobilenode.wlan[7].radio 	lossRate:max 	0.5
attr interpolationmode  backward-sample-hold
attr title  "packet loss rate, max"
scalar Mobility_Aware_Cross_Layer_Routing_Approach_EAR_P2P_NW.Mobilenode.wlan[7].radio 	lossRate:timeavg 	0.5
attr interpolationmode  backward-sample-hold
attr title  "packet loss rate, timeavg"
statistic Mobility_Aware_Cross_Layer_Routing_Approach_EAR_P2P_NW.Mobilenode.wlan[7].radio 	channelNo:histogram
field count 1
field mean 0
field stddev nan
field sum 0
field sqrsum 0
field min 0
field max 0
attr interpolationmode  sample-hold
attr title  "channel no, histogram"
bin	-INF	0
bin	-0.5	0
bin	-0.46666666666667	0
bin	-0.43333333333333	0
bin	-0.4	0
bin	-0.36666666666667	0
bin	-0.33333333333333	0
bin	-0.3	0
bin	-0.26666666666667	0
bin	-0.23333333333333	0
bin	-0.2	0
bin	-0.16666666666667	0
bin	-0.13333333333333	0
bin	-0.1	0
bin	-0.066666666666667	0
bin	-0.033333333333333	0
bin	-6.9388939039072e-018	1
bin	0.033333333333333	0
bin	0.066666666666667	0
bin	0.1	0
bin	0.13333333333333	0
bin	0.16666666666667	0
bin	0.2	0
bin	0.23333333333333	0
bin	0.26666666666667	0
bin	0.3	0
bin	0.33333333333333	0
bin	0.36666666666667	0
bin	0.4	0
bin	0.43333333333333	0
bin	0.46666666666667	0
bin	0.5	0
scalar Mobility_Aware_Cross_Layer_Routing_Approach_EAR_P2P_NW.Mobilenode.wlan[7].radio 	radioState:count 	181
attr interpolationmode  sample-hold
attr title  "radio state (enum), count"
scalar Mobility_Aware_Cross_Layer_Routing_Approach_EAR_P2P_NW.Mobilenode.wlan[7].radio 	bitrate:min 	2000000
attr interpolationmode  sample-hold
attr title  "tx bitrate, min"
attr unit  bps
scalar Mobility_Aware_Cross_Layer_Routing_Approach_EAR_P2P_NW.Mobilenode.wlan[7].radio 	bitrate:max 	2000000
attr interpolationmode  sample-hold
attr title  "tx bitrate, max"
attr unit  bps
scalar Mobility_Aware_Cross_Layer_Routing_Approach_EAR_P2P_NW.Mobilenode.wlan[7].radio 	bitrate:timeavg 	2000000
attr interpolationmode  sample-hold
attr title  "tx bitrate, timeavg"
attr unit  bps
scalar Mobility_Aware_Cross_Layer_Routing_Approach_EAR_P2P_NW.Mobilenode.wlan[8].mgmt 	dropPkByQueue:count 	0
attr interpolationmode  none
attr source  dropPkByQueue
attr title  "packets dropped by queue, count"
scalar Mobility_Aware_Cross_Layer_Routing_Approach_EAR_P2P_NW.Mobilenode.wlan[8].mgmt 	dropPkByQueue:sum(packetBytes) 	0
attr interpolationmode  none
attr source  dropPkByQueue
attr title  "packets dropped by queue, sum(packetBytes)"
scalar Mobility_Aware_Cross_Layer_Routing_Approach_EAR_P2P_NW.Mobilenode.wlan[8].mgmt 	dataQueueLen:max 	0
attr interpolationmode  sample-hold
attr title  "data queue length, max"
scalar Mobility_Aware_Cross_Layer_Routing_Approach_EAR_P2P_NW.Mobilenode.wlan[8].mgmt 	dataQueueLen:timeavg 	0
attr interpolationmode  sample-hold
attr title  "data queue length, timeavg"
scalar Mobility_Aware_Cross_Layer_Routing_Approach_EAR_P2P_NW.Mobilenode.wlan[8].mac 	"number of received packets" 	0
scalar Mobility_Aware_Cross_Layer_Routing_Approach_EAR_P2P_NW.Mobilenode.wlan[8].mac 	"number of collisions" 	50
scalar Mobility_Aware_Cross_Layer_Routing_Approach_EAR_P2P_NW.Mobilenode.wlan[8].mac 	"number of internal collisions" 	0
scalar Mobility_Aware_Cross_Layer_Routing_Approach_EAR_P2P_NW.Mobilenode.wlan[8].mac 	"number of retry for AC 0" 	0
scalar Mobility_Aware_Cross_Layer_Routing_Approach_EAR_P2P_NW.Mobilenode.wlan[8].mac 	"sent and received bits" 	624
scalar Mobility_Aware_Cross_Layer_Routing_Approach_EAR_P2P_NW.Mobilenode.wlan[8].mac 	"sent packet within AC 0" 	0
scalar Mobility_Aware_Cross_Layer_Routing_Approach_EAR_P2P_NW.Mobilenode.wlan[8].mac 	"sent in TXOP " 	0
scalar Mobility_Aware_Cross_Layer_Routing_Approach_EAR_P2P_NW.Mobilenode.wlan[8].mac 	"sentWithoutRetry AC 0" 	0
scalar Mobility_Aware_Cross_Layer_Routing_Approach_EAR_P2P_NW.Mobilenode.wlan[8].mac 	"numGivenUp AC 0" 	0
scalar Mobility_Aware_Cross_Layer_Routing_Approach_EAR_P2P_NW.Mobilenode.wlan[8].mac 	"numDropped AC 0" 	0
scalar Mobility_Aware_Cross_Layer_Routing_Approach_EAR_P2P_NW.Mobilenode.wlan[8].mac 	rcvdPkFromHL:count 	1
attr interpolationmode  none
attr source  packetReceivedFromUpper
attr title  "packets received from higher layer, count"
scalar Mobility_Aware_Cross_Layer_Routing_Approach_EAR_P2P_NW.Mobilenode.wlan[8].mac 	rcvdPkFromHL:sum(packetBytes) 	78
attr interpolationmode  none
attr source  packetReceivedFromUpper
attr title  "packets received from higher layer, sum(packetBytes)"
scalar Mobility_Aware_Cross_Layer_Routing_Approach_EAR_P2P_NW.Mobilenode.wlan[8].mac 	passedUpPk:count 	31
attr interpolationmode  none
attr source  packetSentToUpper
attr title  "packets passed to higher layer, count"
scalar Mobility_Aware_Cross_Layer_Routing_Approach_EAR_P2P_NW.Mobilenode.wlan[8].mac 	passedUpPk:sum(packetBytes) 	2418
attr interpolationmode  none
attr source  packetSentToUpper
attr title  "packets passed to higher layer, sum(packetBytes)"
scalar Mobility_Aware_Cross_Layer_Routing_Approach_EAR_P2P_NW.Mobilenode.wlan[8].mac 	rcvdPkFromLL:count 	81
attr interpolationmode  none
attr source  packetReceivedFromLower
attr title  "packets received from lower layer, count"
scalar Mobility_Aware_Cross_Layer_Routing_Approach_EAR_P2P_NW.Mobilenode.wlan[8].mac 	rcvdPkFromLL:sum(packetBytes) 	6318
attr interpolationmode  none
attr source  packetReceivedFromLower
attr title  "packets received from lower layer, sum(packetBytes)"
scalar Mobility_Aware_Cross_Layer_Routing_Approach_EAR_P2P_NW.Mobilenode.wlan[8].mac 	sentDownPk:count 	1
attr interpolationmode  none
attr source  packetSentToLower
attr title  "packets sent to lower layer, count"
scalar Mobility_Aware_Cross_Layer_Routing_Approach_EAR_P2P_NW.Mobilenode.wlan[8].mac 	sentDownPk:sum(packetBytes) 	78
attr interpolationmode  none
attr source  packetSentToLower
attr title  "packets sent to lower layer, sum(packetBytes)"
scalar Mobility_Aware_Cross_Layer_Routing_Approach_EAR_P2P_NW.Mobilenode.wlan[8].radio 	lossRate:min 	0.52
attr interpolationmode  backward-sample-hold
attr title  "packet loss rate, min"
scalar Mobility_Aware_Cross_Layer_Routing_Approach_EAR_P2P_NW.Mobilenode.wlan[8].radio 	lossRate:max 	0.52
attr interpolationmode  backward-sample-hold
attr title  "packet loss rate, max"
scalar Mobility_Aware_Cross_Layer_Routing_Approach_EAR_P2P_NW.Mobilenode.wlan[8].radio 	lossRate:timeavg 	0.52
attr interpolationmode  backward-sample-hold
attr title  "packet loss rate, timeavg"
statistic Mobility_Aware_Cross_Layer_Routing_Approach_EAR_P2P_NW.Mobilenode.wlan[8].radio 	channelNo:histogram
field count 1
field mean 0
field stddev nan
field sum 0
field sqrsum 0
field min 0
field max 0
attr interpolationmode  sample-hold
attr title  "channel no, histogram"
bin	-INF	0
bin	-0.5	0
bin	-0.46666666666667	0
bin	-0.43333333333333	0
bin	-0.4	0
bin	-0.36666666666667	0
bin	-0.33333333333333	0
bin	-0.3	0
bin	-0.26666666666667	0
bin	-0.23333333333333	0
bin	-0.2	0
bin	-0.16666666666667	0
bin	-0.13333333333333	0
bin	-0.1	0
bin	-0.066666666666667	0
bin	-0.033333333333333	0
bin	-6.9388939039072e-018	1
bin	0.033333333333333	0
bin	0.066666666666667	0
bin	0.1	0
bin	0.13333333333333	0
bin	0.16666666666667	0
bin	0.2	0
bin	0.23333333333333	0
bin	0.26666666666667	0
bin	0.3	0
bin	0.33333333333333	0
bin	0.36666666666667	0
bin	0.4	0
bin	0.43333333333333	0
bin	0.46666666666667	0
bin	0.5	0
scalar Mobility_Aware_Cross_Layer_Routing_Approach_EAR_P2P_NW.Mobilenode.wlan[8].radio 	radioState:count 	181
attr interpolationmode  sample-hold
attr title  "radio state (enum), count"
scalar Mobility_Aware_Cross_Layer_Routing_Approach_EAR_P2P_NW.Mobilenode.wlan[8].radio 	bitrate:min 	2000000
attr interpolationmode  sample-hold
attr title  "tx bitrate, min"
attr unit  bps
scalar Mobility_Aware_Cross_Layer_Routing_Approach_EAR_P2P_NW.Mobilenode.wlan[8].radio 	bitrate:max 	2000000
attr interpolationmode  sample-hold
attr title  "tx bitrate, max"
attr unit  bps
scalar Mobility_Aware_Cross_Layer_Routing_Approach_EAR_P2P_NW.Mobilenode.wlan[8].radio 	bitrate:timeavg 	2000000
attr interpolationmode  sample-hold
attr title  "tx bitrate, timeavg"
attr unit  bps
scalar Mobility_Aware_Cross_Layer_Routing_Approach_EAR_P2P_NW.Mobilenode.wlan[9].mgmt 	dropPkByQueue:count 	0
attr interpolationmode  none
attr source  dropPkByQueue
attr title  "packets dropped by queue, count"
scalar Mobility_Aware_Cross_Layer_Routing_Approach_EAR_P2P_NW.Mobilenode.wlan[9].mgmt 	dropPkByQueue:sum(packetBytes) 	0
attr interpolationmode  none
attr source  dropPkByQueue
attr title  "packets dropped by queue, sum(packetBytes)"
scalar Mobility_Aware_Cross_Layer_Routing_Approach_EAR_P2P_NW.Mobilenode.wlan[9].mgmt 	dataQueueLen:max 	0
attr interpolationmode  sample-hold
attr title  "data queue length, max"
scalar Mobility_Aware_Cross_Layer_Routing_Approach_EAR_P2P_NW.Mobilenode.wlan[9].mgmt 	dataQueueLen:timeavg 	0
attr interpolationmode  sample-hold
attr title  "data queue length, timeavg"
scalar Mobility_Aware_Cross_Layer_Routing_Approach_EAR_P2P_NW.Mobilenode.wlan[9].mac 	"number of received packets" 	0
scalar Mobility_Aware_Cross_Layer_Routing_Approach_EAR_P2P_NW.Mobilenode.wlan[9].mac 	"number of collisions" 	51
scalar Mobility_Aware_Cross_Layer_Routing_Approach_EAR_P2P_NW.Mobilenode.wlan[9].mac 	"number of internal collisions" 	0
scalar Mobility_Aware_Cross_Layer_Routing_Approach_EAR_P2P_NW.Mobilenode.wlan[9].mac 	"number of retry for AC 0" 	0
scalar Mobility_Aware_Cross_Layer_Routing_Approach_EAR_P2P_NW.Mobilenode.wlan[9].mac 	"sent and received bits" 	624
scalar Mobility_Aware_Cross_Layer_Routing_Approach_EAR_P2P_NW.Mobilenode.wlan[9].mac 	"sent packet within AC 0" 	0
scalar Mobility_Aware_Cross_Layer_Routing_Approach_EAR_P2P_NW.Mobilenode.wlan[9].mac 	"sent in TXOP " 	0
scalar Mobility_Aware_Cross_Layer_Routing_Approach_EAR_P2P_NW.Mobilenode.wlan[9].mac 	"sentWithoutRetry AC 0" 	0
scalar Mobility_Aware_Cross_Layer_Routing_Approach_EAR_P2P_NW.Mobilenode.wlan[9].mac 	"numGivenUp AC 0" 	0
scalar Mobility_Aware_Cross_Layer_Routing_Approach_EAR_P2P_NW.Mobilenode.wlan[9].mac 	"numDropped AC 0" 	0
scalar Mobility_Aware_Cross_Layer_Routing_Approach_EAR_P2P_NW.Mobilenode.wlan[9].mac 	rcvdPkFromHL:count 	1
attr interpolationmode  none
attr source  packetReceivedFromUpper
attr title  "packets received from higher layer, count"
scalar Mobility_Aware_Cross_Layer_Routing_Approach_EAR_P2P_NW.Mobilenode.wlan[9].mac 	rcvdPkFromHL:sum(packetBytes) 	78
attr interpolationmode  none
attr source  packetReceivedFromUpper
attr title  "packets received from higher layer, sum(packetBytes)"
scalar Mobility_Aware_Cross_Layer_Routing_Approach_EAR_P2P_NW.Mobilenode.wlan[9].mac 	passedUpPk:count 	30
attr interpolationmode  none
attr source  packetSentToUpper
attr title  "packets passed to higher layer, count"
scalar Mobility_Aware_Cross_Layer_Routing_Approach_EAR_P2P_NW.Mobilenode.wlan[9].mac 	passedUpPk:sum(packetBytes) 	2340
attr interpolationmode  none
attr source  packetSentToUpper
attr title  "packets passed to higher layer, sum(packetBytes)"
scalar Mobility_Aware_Cross_Layer_Routing_Approach_EAR_P2P_NW.Mobilenode.wlan[9].mac 	rcvdPkFromLL:count 	81
attr interpolationmode  none
attr source  packetReceivedFromLower
attr title  "packets received from lower layer, count"
scalar Mobility_Aware_Cross_Layer_Routing_Approach_EAR_P2P_NW.Mobilenode.wlan[9].mac 	rcvdPkFromLL:sum(packetBytes) 	6318
attr interpolationmode  none
attr source  packetReceivedFromLower
attr title  "packets received from lower layer, sum(packetBytes)"
scalar Mobility_Aware_Cross_Layer_Routing_Approach_EAR_P2P_NW.Mobilenode.wlan[9].mac 	sentDownPk:count 	1
attr interpolationmode  none
attr source  packetSentToLower
attr title  "packets sent to lower layer, count"
scalar Mobility_Aware_Cross_Layer_Routing_Approach_EAR_P2P_NW.Mobilenode.wlan[9].mac 	sentDownPk:sum(packetBytes) 	78
attr interpolationmode  none
attr source  packetSentToLower
attr title  "packets sent to lower layer, sum(packetBytes)"
scalar Mobility_Aware_Cross_Layer_Routing_Approach_EAR_P2P_NW.Mobilenode.wlan[9].radio 	lossRate:min 	0.58
attr interpolationmode  backward-sample-hold
attr title  "packet loss rate, min"
scalar Mobility_Aware_Cross_Layer_Routing_Approach_EAR_P2P_NW.Mobilenode.wlan[9].radio 	lossRate:max 	0.58
attr interpolationmode  backward-sample-hold
attr title  "packet loss rate, max"
scalar Mobility_Aware_Cross_Layer_Routing_Approach_EAR_P2P_NW.Mobilenode.wlan[9].radio 	lossRate:timeavg 	0.58
attr interpolationmode  backward-sample-hold
attr title  "packet loss rate, timeavg"
statistic Mobility_Aware_Cross_Layer_Routing_Approach_EAR_P2P_NW.Mobilenode.wlan[9].radio 	channelNo:histogram
field count 1
field mean 0
field stddev nan
field sum 0
field sqrsum 0
field min 0
field max 0
attr interpolationmode  sample-hold
attr title  "channel no, histogram"
bin	-INF	0
bin	-0.5	0
bin	-0.46666666666667	0
bin	-0.43333333333333	0
bin	-0.4	0
bin	-0.36666666666667	0
bin	-0.33333333333333	0
bin	-0.3	0
bin	-0.26666666666667	0
bin	-0.23333333333333	0
bin	-0.2	0
bin	-0.16666666666667	0
bin	-0.13333333333333	0
bin	-0.1	0
bin	-0.066666666666667	0
bin	-0.033333333333333	0
bin	-6.9388939039072e-018	1
bin	0.033333333333333	0
bin	0.066666666666667	0
bin	0.1	0
bin	0.13333333333333	0
bin	0.16666666666667	0
bin	0.2	0
bin	0.23333333333333	0
bin	0.26666666666667	0
bin	0.3	0
bin	0.33333333333333	0
bin	0.36666666666667	0
bin	0.4	0
bin	0.43333333333333	0
bin	0.46666666666667	0
bin	0.5	0
scalar Mobility_Aware_Cross_Layer_Routing_Approach_EAR_P2P_NW.Mobilenode.wlan[9].radio 	radioState:count 	182
attr interpolationmode  sample-hold
attr title  "radio state (enum), count"
scalar Mobility_Aware_Cross_Layer_Routing_Approach_EAR_P2P_NW.Mobilenode.wlan[9].radio 	bitrate:min 	2000000
attr interpolationmode  sample-hold
attr title  "tx bitrate, min"
attr unit  bps
scalar Mobility_Aware_Cross_Layer_Routing_Approach_EAR_P2P_NW.Mobilenode.wlan[9].radio 	bitrate:max 	2000000
attr interpolationmode  sample-hold
attr title  "tx bitrate, max"
attr unit  bps
scalar Mobility_Aware_Cross_Layer_Routing_Approach_EAR_P2P_NW.Mobilenode.wlan[9].radio 	bitrate:timeavg 	2000000
attr interpolationmode  sample-hold
attr title  "tx bitrate, timeavg"
attr unit  bps
scalar Mobility_Aware_Cross_Layer_Routing_Approach_EAR_P2P_NW.Mobilenode1.relayUnit 	"number of received BPDUs from STP module" 	0
scalar Mobility_Aware_Cross_Layer_Routing_Approach_EAR_P2P_NW.Mobilenode1.relayUnit 	"number of received frames from network (including BPDUs)" 	0
scalar Mobility_Aware_Cross_Layer_Routing_Approach_EAR_P2P_NW.Mobilenode1.relayUnit 	"number of dropped frames (including BPDUs)" 	0
scalar Mobility_Aware_Cross_Layer_Routing_Approach_EAR_P2P_NW.Mobilenode1.relayUnit 	"number of delivered BPDUs to the STP module" 	0
scalar Mobility_Aware_Cross_Layer_Routing_Approach_EAR_P2P_NW.Mobilenode1.relayUnit 	"number of dispatched BPDU frames to the network" 	0
scalar Mobility_Aware_Cross_Layer_Routing_Approach_EAR_P2P_NW.Mobilenode1.relayUnit 	"number of dispatched non-BDPU frames to the network" 	0
scalar Mobility_Aware_Cross_Layer_Routing_Approach_EAR_P2P_NW.Mobilenode1.wlan[0].mgmt 	dropPkByQueue:count 	0
attr interpolationmode  none
attr source  dropPkByQueue
attr title  "packets dropped by queue, count"
scalar Mobility_Aware_Cross_Layer_Routing_Approach_EAR_P2P_NW.Mobilenode1.wlan[0].mgmt 	dropPkByQueue:sum(packetBytes) 	0
attr interpolationmode  none
attr source  dropPkByQueue
attr title  "packets dropped by queue, sum(packetBytes)"
scalar Mobility_Aware_Cross_Layer_Routing_Approach_EAR_P2P_NW.Mobilenode1.wlan[0].mgmt 	dataQueueLen:max 	0
attr interpolationmode  sample-hold
attr title  "data queue length, max"
scalar Mobility_Aware_Cross_Layer_Routing_Approach_EAR_P2P_NW.Mobilenode1.wlan[0].mgmt 	dataQueueLen:timeavg 	0
attr interpolationmode  sample-hold
attr title  "data queue length, timeavg"
scalar Mobility_Aware_Cross_Layer_Routing_Approach_EAR_P2P_NW.Mobilenode1.wlan[0].mac 	"number of received packets" 	0
scalar Mobility_Aware_Cross_Layer_Routing_Approach_EAR_P2P_NW.Mobilenode1.wlan[0].mac 	"number of collisions" 	66
scalar Mobility_Aware_Cross_Layer_Routing_Approach_EAR_P2P_NW.Mobilenode1.wlan[0].mac 	"number of internal collisions" 	0
scalar Mobility_Aware_Cross_Layer_Routing_Approach_EAR_P2P_NW.Mobilenode1.wlan[0].mac 	"number of retry for AC 0" 	0
scalar Mobility_Aware_Cross_Layer_Routing_Approach_EAR_P2P_NW.Mobilenode1.wlan[0].mac 	"sent and received bits" 	0
scalar Mobility_Aware_Cross_Layer_Routing_Approach_EAR_P2P_NW.Mobilenode1.wlan[0].mac 	"sent packet within AC 0" 	0
scalar Mobility_Aware_Cross_Layer_Routing_Approach_EAR_P2P_NW.Mobilenode1.wlan[0].mac 	"sent in TXOP " 	0
scalar Mobility_Aware_Cross_Layer_Routing_Approach_EAR_P2P_NW.Mobilenode1.wlan[0].mac 	"sentWithoutRetry AC 0" 	0
scalar Mobility_Aware_Cross_Layer_Routing_Approach_EAR_P2P_NW.Mobilenode1.wlan[0].mac 	"numGivenUp AC 0" 	0
scalar Mobility_Aware_Cross_Layer_Routing_Approach_EAR_P2P_NW.Mobilenode1.wlan[0].mac 	"numDropped AC 0" 	0
scalar Mobility_Aware_Cross_Layer_Routing_Approach_EAR_P2P_NW.Mobilenode1.wlan[0].mac 	rcvdPkFromHL:count 	1
attr interpolationmode  none
attr source  packetReceivedFromUpper
attr title  "packets received from higher layer, count"
scalar Mobility_Aware_Cross_Layer_Routing_Approach_EAR_P2P_NW.Mobilenode1.wlan[0].mac 	rcvdPkFromHL:sum(packetBytes) 	78
attr interpolationmode  none
attr source  packetReceivedFromUpper
attr title  "packets received from higher layer, sum(packetBytes)"
scalar Mobility_Aware_Cross_Layer_Routing_Approach_EAR_P2P_NW.Mobilenode1.wlan[0].mac 	passedUpPk:count 	27
attr interpolationmode  none
attr source  packetSentToUpper
attr title  "packets passed to higher layer, count"
scalar Mobility_Aware_Cross_Layer_Routing_Approach_EAR_P2P_NW.Mobilenode1.wlan[0].mac 	passedUpPk:sum(packetBytes) 	2106
attr interpolationmode  none
attr source  packetSentToUpper
attr title  "packets passed to higher layer, sum(packetBytes)"
scalar Mobility_Aware_Cross_Layer_Routing_Approach_EAR_P2P_NW.Mobilenode1.wlan[0].mac 	rcvdPkFromLL:count 	93
attr interpolationmode  none
attr source  packetReceivedFromLower
attr title  "packets received from lower layer, count"
scalar Mobility_Aware_Cross_Layer_Routing_Approach_EAR_P2P_NW.Mobilenode1.wlan[0].mac 	rcvdPkFromLL:sum(packetBytes) 	7254
attr interpolationmode  none
attr source  packetReceivedFromLower
attr title  "packets received from lower layer, sum(packetBytes)"
scalar Mobility_Aware_Cross_Layer_Routing_Approach_EAR_P2P_NW.Mobilenode1.wlan[0].mac 	sentDownPk:count 	0
attr interpolationmode  none
attr source  packetSentToLower
attr title  "packets sent to lower layer, count"
scalar Mobility_Aware_Cross_Layer_Routing_Approach_EAR_P2P_NW.Mobilenode1.wlan[0].mac 	sentDownPk:sum(packetBytes) 	0
attr interpolationmode  none
attr source  packetSentToLower
attr title  "packets sent to lower layer, sum(packetBytes)"
scalar Mobility_Aware_Cross_Layer_Routing_Approach_EAR_P2P_NW.Mobilenode1.wlan[0].radio 	lossRate:min 	0.68
attr interpolationmode  backward-sample-hold
attr title  "packet loss rate, min"
scalar Mobility_Aware_Cross_Layer_Routing_Approach_EAR_P2P_NW.Mobilenode1.wlan[0].radio 	lossRate:max 	0.68
attr interpolationmode  backward-sample-hold
attr title  "packet loss rate, max"
scalar Mobility_Aware_Cross_Layer_Routing_Approach_EAR_P2P_NW.Mobilenode1.wlan[0].radio 	lossRate:timeavg 	0.68
attr interpolationmode  backward-sample-hold
attr title  "packet loss rate, timeavg"
statistic Mobility_Aware_Cross_Layer_Routing_Approach_EAR_P2P_NW.Mobilenode1.wlan[0].radio 	channelNo:histogram
field count 1
field mean 0
field stddev nan
field sum 0
field sqrsum 0
field min 0
field max 0
attr interpolationmode  sample-hold
attr title  "channel no, histogram"
bin	-INF	0
bin	-0.5	0
bin	-0.46666666666667	0
bin	-0.43333333333333	0
bin	-0.4	0
bin	-0.36666666666667	0
bin	-0.33333333333333	0
bin	-0.3	0
bin	-0.26666666666667	0
bin	-0.23333333333333	0
bin	-0.2	0
bin	-0.16666666666667	0
bin	-0.13333333333333	0
bin	-0.1	0
bin	-0.066666666666667	0
bin	-0.033333333333333	0
bin	-6.9388939039072e-018	1
bin	0.033333333333333	0
bin	0.066666666666667	0
bin	0.1	0
bin	0.13333333333333	0
bin	0.16666666666667	0
bin	0.2	0
bin	0.23333333333333	0
bin	0.26666666666667	0
bin	0.3	0
bin	0.33333333333333	0
bin	0.36666666666667	0
bin	0.4	0
bin	0.43333333333333	0
bin	0.46666666666667	0
bin	0.5	0
scalar Mobility_Aware_Cross_Layer_Routing_Approach_EAR_P2P_NW.Mobilenode1.wlan[0].radio 	radioState:count 	187
attr interpolationmode  sample-hold
attr title  "radio state (enum), count"
scalar Mobility_Aware_Cross_Layer_Routing_Approach_EAR_P2P_NW.Mobilenode1.wlan[0].radio 	bitrate:min 	2000000
attr interpolationmode  sample-hold
attr title  "tx bitrate, min"
attr unit  bps
scalar Mobility_Aware_Cross_Layer_Routing_Approach_EAR_P2P_NW.Mobilenode1.wlan[0].radio 	bitrate:max 	2000000
attr interpolationmode  sample-hold
attr title  "tx bitrate, max"
attr unit  bps
scalar Mobility_Aware_Cross_Layer_Routing_Approach_EAR_P2P_NW.Mobilenode1.wlan[0].radio 	bitrate:timeavg 	2000000
attr interpolationmode  sample-hold
attr title  "tx bitrate, timeavg"
attr unit  bps
scalar Mobility_Aware_Cross_Layer_Routing_Approach_EAR_P2P_NW.Mobilenode1.wlan[1].mgmt 	dropPkByQueue:count 	0
attr interpolationmode  none
attr source  dropPkByQueue
attr title  "packets dropped by queue, count"
scalar Mobility_Aware_Cross_Layer_Routing_Approach_EAR_P2P_NW.Mobilenode1.wlan[1].mgmt 	dropPkByQueue:sum(packetBytes) 	0
attr interpolationmode  none
attr source  dropPkByQueue
attr title  "packets dropped by queue, sum(packetBytes)"
scalar Mobility_Aware_Cross_Layer_Routing_Approach_EAR_P2P_NW.Mobilenode1.wlan[1].mgmt 	dataQueueLen:max 	0
attr interpolationmode  sample-hold
attr title  "data queue length, max"
scalar Mobility_Aware_Cross_Layer_Routing_Approach_EAR_P2P_NW.Mobilenode1.wlan[1].mgmt 	dataQueueLen:timeavg 	0
attr interpolationmode  sample-hold
attr title  "data queue length, timeavg"
scalar Mobility_Aware_Cross_Layer_Routing_Approach_EAR_P2P_NW.Mobilenode1.wlan[1].mac 	"number of received packets" 	0
scalar Mobility_Aware_Cross_Layer_Routing_Approach_EAR_P2P_NW.Mobilenode1.wlan[1].mac 	"number of collisions" 	66
scalar Mobility_Aware_Cross_Layer_Routing_Approach_EAR_P2P_NW.Mobilenode1.wlan[1].mac 	"number of internal collisions" 	0
scalar Mobility_Aware_Cross_Layer_Routing_Approach_EAR_P2P_NW.Mobilenode1.wlan[1].mac 	"number of retry for AC 0" 	0
scalar Mobility_Aware_Cross_Layer_Routing_Approach_EAR_P2P_NW.Mobilenode1.wlan[1].mac 	"sent and received bits" 	624
scalar Mobility_Aware_Cross_Layer_Routing_Approach_EAR_P2P_NW.Mobilenode1.wlan[1].mac 	"sent packet within AC 0" 	0
scalar Mobility_Aware_Cross_Layer_Routing_Approach_EAR_P2P_NW.Mobilenode1.wlan[1].mac 	"sent in TXOP " 	0
scalar Mobility_Aware_Cross_Layer_Routing_Approach_EAR_P2P_NW.Mobilenode1.wlan[1].mac 	"sentWithoutRetry AC 0" 	0
scalar Mobility_Aware_Cross_Layer_Routing_Approach_EAR_P2P_NW.Mobilenode1.wlan[1].mac 	"numGivenUp AC 0" 	0
scalar Mobility_Aware_Cross_Layer_Routing_Approach_EAR_P2P_NW.Mobilenode1.wlan[1].mac 	"numDropped AC 0" 	0
scalar Mobility_Aware_Cross_Layer_Routing_Approach_EAR_P2P_NW.Mobilenode1.wlan[1].mac 	rcvdPkFromHL:count 	1
attr interpolationmode  none
attr source  packetReceivedFromUpper
attr title  "packets received from higher layer, count"
scalar Mobility_Aware_Cross_Layer_Routing_Approach_EAR_P2P_NW.Mobilenode1.wlan[1].mac 	rcvdPkFromHL:sum(packetBytes) 	78
attr interpolationmode  none
attr source  packetReceivedFromUpper
attr title  "packets received from higher layer, sum(packetBytes)"
scalar Mobility_Aware_Cross_Layer_Routing_Approach_EAR_P2P_NW.Mobilenode1.wlan[1].mac 	passedUpPk:count 	26
attr interpolationmode  none
attr source  packetSentToUpper
attr title  "packets passed to higher layer, count"
scalar Mobility_Aware_Cross_Layer_Routing_Approach_EAR_P2P_NW.Mobilenode1.wlan[1].mac 	passedUpPk:sum(packetBytes) 	2028
attr interpolationmode  none
attr source  packetSentToUpper
attr title  "packets passed to higher layer, sum(packetBytes)"
scalar Mobility_Aware_Cross_Layer_Routing_Approach_EAR_P2P_NW.Mobilenode1.wlan[1].mac 	rcvdPkFromLL:count 	92
attr interpolationmode  none
attr source  packetReceivedFromLower
attr title  "packets received from lower layer, count"
scalar Mobility_Aware_Cross_Layer_Routing_Approach_EAR_P2P_NW.Mobilenode1.wlan[1].mac 	rcvdPkFromLL:sum(packetBytes) 	7176
attr interpolationmode  none
attr source  packetReceivedFromLower
attr title  "packets received from lower layer, sum(packetBytes)"
scalar Mobility_Aware_Cross_Layer_Routing_Approach_EAR_P2P_NW.Mobilenode1.wlan[1].mac 	sentDownPk:count 	1
attr interpolationmode  none
attr source  packetSentToLower
attr title  "packets sent to lower layer, count"
scalar Mobility_Aware_Cross_Layer_Routing_Approach_EAR_P2P_NW.Mobilenode1.wlan[1].mac 	sentDownPk:sum(packetBytes) 	78
attr interpolationmode  none
attr source  packetSentToLower
attr title  "packets sent to lower layer, sum(packetBytes)"
scalar Mobility_Aware_Cross_Layer_Routing_Approach_EAR_P2P_NW.Mobilenode1.wlan[1].radio 	lossRate:min 	0.7
attr interpolationmode  backward-sample-hold
attr title  "packet loss rate, min"
scalar Mobility_Aware_Cross_Layer_Routing_Approach_EAR_P2P_NW.Mobilenode1.wlan[1].radio 	lossRate:max 	0.7
attr interpolationmode  backward-sample-hold
attr title  "packet loss rate, max"
scalar Mobility_Aware_Cross_Layer_Routing_Approach_EAR_P2P_NW.Mobilenode1.wlan[1].radio 	lossRate:timeavg 	0.7
attr interpolationmode  backward-sample-hold
attr title  "packet loss rate, timeavg"
statistic Mobility_Aware_Cross_Layer_Routing_Approach_EAR_P2P_NW.Mobilenode1.wlan[1].radio 	channelNo:histogram
field count 1
field mean 0
field stddev nan
field sum 0
field sqrsum 0
field min 0
field max 0
attr interpolationmode  sample-hold
attr title  "channel no, histogram"
bin	-INF	0
bin	-0.5	0
bin	-0.46666666666667	0
bin	-0.43333333333333	0
bin	-0.4	0
bin	-0.36666666666667	0
bin	-0.33333333333333	0
bin	-0.3	0
bin	-0.26666666666667	0
bin	-0.23333333333333	0
bin	-0.2	0
bin	-0.16666666666667	0
bin	-0.13333333333333	0
bin	-0.1	0
bin	-0.066666666666667	0
bin	-0.033333333333333	0
bin	-6.9388939039072e-018	1
bin	0.033333333333333	0
bin	0.066666666666667	0
bin	0.1	0
bin	0.13333333333333	0
bin	0.16666666666667	0
bin	0.2	0
bin	0.23333333333333	0
bin	0.26666666666667	0
bin	0.3	0
bin	0.33333333333333	0
bin	0.36666666666667	0
bin	0.4	0
bin	0.43333333333333	0
bin	0.46666666666667	0
bin	0.5	0
scalar Mobility_Aware_Cross_Layer_Routing_Approach_EAR_P2P_NW.Mobilenode1.wlan[1].radio 	radioState:count 	187
attr interpolationmode  sample-hold
attr title  "radio state (enum), count"
scalar Mobility_Aware_Cross_Layer_Routing_Approach_EAR_P2P_NW.Mobilenode1.wlan[1].radio 	bitrate:min 	2000000
attr interpolationmode  sample-hold
attr title  "tx bitrate, min"
attr unit  bps
scalar Mobility_Aware_Cross_Layer_Routing_Approach_EAR_P2P_NW.Mobilenode1.wlan[1].radio 	bitrate:max 	2000000
attr interpolationmode  sample-hold
attr title  "tx bitrate, max"
attr unit  bps
scalar Mobility_Aware_Cross_Layer_Routing_Approach_EAR_P2P_NW.Mobilenode1.wlan[1].radio 	bitrate:timeavg 	2000000
attr interpolationmode  sample-hold
attr title  "tx bitrate, timeavg"
attr unit  bps
scalar Mobility_Aware_Cross_Layer_Routing_Approach_EAR_P2P_NW.Mobilenode1.wlan[2].mgmt 	dropPkByQueue:count 	0
attr interpolationmode  none
attr source  dropPkByQueue
attr title  "packets dropped by queue, count"
scalar Mobility_Aware_Cross_Layer_Routing_Approach_EAR_P2P_NW.Mobilenode1.wlan[2].mgmt 	dropPkByQueue:sum(packetBytes) 	0
attr interpolationmode  none
attr source  dropPkByQueue
attr title  "packets dropped by queue, sum(packetBytes)"
scalar Mobility_Aware_Cross_Layer_Routing_Approach_EAR_P2P_NW.Mobilenode1.wlan[2].mgmt 	dataQueueLen:max 	0
attr interpolationmode  sample-hold
attr title  "data queue length, max"
scalar Mobility_Aware_Cross_Layer_Routing_Approach_EAR_P2P_NW.Mobilenode1.wlan[2].mgmt 	dataQueueLen:timeavg 	0
attr interpolationmode  sample-hold
attr title  "data queue length, timeavg"
scalar Mobility_Aware_Cross_Layer_Routing_Approach_EAR_P2P_NW.Mobilenode1.wlan[2].mac 	"number of received packets" 	0
scalar Mobility_Aware_Cross_Layer_Routing_Approach_EAR_P2P_NW.Mobilenode1.wlan[2].mac 	"number of collisions" 	64
scalar Mobility_Aware_Cross_Layer_Routing_Approach_EAR_P2P_NW.Mobilenode1.wlan[2].mac 	"number of internal collisions" 	0
scalar Mobility_Aware_Cross_Layer_Routing_Approach_EAR_P2P_NW.Mobilenode1.wlan[2].mac 	"number of retry for AC 0" 	0
scalar Mobility_Aware_Cross_Layer_Routing_Approach_EAR_P2P_NW.Mobilenode1.wlan[2].mac 	"sent and received bits" 	624
scalar Mobility_Aware_Cross_Layer_Routing_Approach_EAR_P2P_NW.Mobilenode1.wlan[2].mac 	"sent packet within AC 0" 	0
scalar Mobility_Aware_Cross_Layer_Routing_Approach_EAR_P2P_NW.Mobilenode1.wlan[2].mac 	"sent in TXOP " 	0
scalar Mobility_Aware_Cross_Layer_Routing_Approach_EAR_P2P_NW.Mobilenode1.wlan[2].mac 	"sentWithoutRetry AC 0" 	0
scalar Mobility_Aware_Cross_Layer_Routing_Approach_EAR_P2P_NW.Mobilenode1.wlan[2].mac 	"numGivenUp AC 0" 	0
scalar Mobility_Aware_Cross_Layer_Routing_Approach_EAR_P2P_NW.Mobilenode1.wlan[2].mac 	"numDropped AC 0" 	0
scalar Mobility_Aware_Cross_Layer_Routing_Approach_EAR_P2P_NW.Mobilenode1.wlan[2].mac 	rcvdPkFromHL:count 	1
attr interpolationmode  none
attr source  packetReceivedFromUpper
attr title  "packets received from higher layer, count"
scalar Mobility_Aware_Cross_Layer_Routing_Approach_EAR_P2P_NW.Mobilenode1.wlan[2].mac 	rcvdPkFromHL:sum(packetBytes) 	78
attr interpolationmode  none
attr source  packetReceivedFromUpper
attr title  "packets received from higher layer, sum(packetBytes)"
scalar Mobility_Aware_Cross_Layer_Routing_Approach_EAR_P2P_NW.Mobilenode1.wlan[2].mac 	passedUpPk:count 	28
attr interpolationmode  none
attr source  packetSentToUpper
attr title  "packets passed to higher layer, count"
scalar Mobility_Aware_Cross_Layer_Routing_Approach_EAR_P2P_NW.Mobilenode1.wlan[2].mac 	passedUpPk:sum(packetBytes) 	2184
attr interpolationmode  none
attr source  packetSentToUpper
attr title  "packets passed to higher layer, sum(packetBytes)"
scalar Mobility_Aware_Cross_Layer_Routing_Approach_EAR_P2P_NW.Mobilenode1.wlan[2].mac 	rcvdPkFromLL:count 	92
attr interpolationmode  none
attr source  packetReceivedFromLower
attr title  "packets received from lower layer, count"
scalar Mobility_Aware_Cross_Layer_Routing_Approach_EAR_P2P_NW.Mobilenode1.wlan[2].mac 	rcvdPkFromLL:sum(packetBytes) 	7176
attr interpolationmode  none
attr source  packetReceivedFromLower
attr title  "packets received from lower layer, sum(packetBytes)"
scalar Mobility_Aware_Cross_Layer_Routing_Approach_EAR_P2P_NW.Mobilenode1.wlan[2].mac 	sentDownPk:count 	1
attr interpolationmode  none
attr source  packetSentToLower
attr title  "packets sent to lower layer, count"
scalar Mobility_Aware_Cross_Layer_Routing_Approach_EAR_P2P_NW.Mobilenode1.wlan[2].mac 	sentDownPk:sum(packetBytes) 	78
attr interpolationmode  none
attr source  packetSentToLower
attr title  "packets sent to lower layer, sum(packetBytes)"
scalar Mobility_Aware_Cross_Layer_Routing_Approach_EAR_P2P_NW.Mobilenode1.wlan[2].radio 	lossRate:min 	0.66
attr interpolationmode  backward-sample-hold
attr title  "packet loss rate, min"
scalar Mobility_Aware_Cross_Layer_Routing_Approach_EAR_P2P_NW.Mobilenode1.wlan[2].radio 	lossRate:max 	0.66
attr interpolationmode  backward-sample-hold
attr title  "packet loss rate, max"
scalar Mobility_Aware_Cross_Layer_Routing_Approach_EAR_P2P_NW.Mobilenode1.wlan[2].radio 	lossRate:timeavg 	0.66
attr interpolationmode  backward-sample-hold
attr title  "packet loss rate, timeavg"
statistic Mobility_Aware_Cross_Layer_Routing_Approach_EAR_P2P_NW.Mobilenode1.wlan[2].radio 	channelNo:histogram
field count 1
field mean 0
field stddev nan
field sum 0
field sqrsum 0
field min 0
field max 0
attr interpolationmode  sample-hold
attr title  "channel no, histogram"
bin	-INF	0
bin	-0.5	0
bin	-0.46666666666667	0
bin	-0.43333333333333	0
bin	-0.4	0
bin	-0.36666666666667	0
bin	-0.33333333333333	0
bin	-0.3	0
bin	-0.26666666666667	0
bin	-0.23333333333333	0
bin	-0.2	0
bin	-0.16666666666667	0
bin	-0.13333333333333	0
bin	-0.1	0
bin	-0.066666666666667	0
bin	-0.033333333333333	0
bin	-6.9388939039072e-018	1
bin	0.033333333333333	0
[...]
attr interpolationmode  none
attr source  packetReceivedFromLower
attr title  "packets received from lower layer, sum(packetBytes)"
scalar Mobility_Aware_Cross_Layer_Routing_Approach_EAR_P2P_NW.Mobilenode50.wlan[9].mac 	sentDownPk:count 	1
attr interpolationmode  none
attr source  packetSentToLower
attr title  "packets sent to lower layer, count"
scalar Mobility_Aware_Cross_Layer_Routing_Approach_EAR_P2P_NW.Mobilenode50.wlan[9].mac 	sentDownPk:sum(packetBytes) 	78
attr interpolationmode  none
attr source  packetSentToLower
attr title  "packets sent to lower layer, sum(packetBytes)"
scalar Mobility_Aware_Cross_Layer_Routing_Approach_EAR_P2P_NW.Mobilenode50.wlan[9].radio 	lossRate:min 	nan
attr interpolationmode  backward-sample-hold
attr title  "packet loss rate, min"
scalar Mobility_Aware_Cross_Layer_Routing_Approach_EAR_P2P_NW.Mobilenode50.wlan[9].radio 	lossRate:max 	nan
attr interpolationmode  backward-sample-hold
attr title  "packet loss rate, max"
scalar Mobility_Aware_Cross_Layer_Routing_Approach_EAR_P2P_NW.Mobilenode50.wlan[9].radio 	lossRate:timeavg 	nan
attr interpolationmode  backward-sample-hold
attr title  "packet loss rate, timeavg"
statistic Mobility_Aware_Cross_Layer_Routing_Approach_EAR_P2P_NW.Mobilenode50.wlan[9].radio 	channelNo:histogram
field count 1
field mean 0
field stddev nan
field sum 0
field sqrsum 0
field min 0
field max 0
attr interpolationmode  sample-hold
attr title  "channel no, histogram"
bin	-INF	0
bin	-0.5	0
bin	-0.46666666666667	0
bin	-0.43333333333333	0
bin	-0.4	0
bin	-0.36666666666667	0
bin	-0.33333333333333	0
bin	-0.3	0
bin	-0.26666666666667	0
bin	-0.23333333333333	0
bin	-0.2	0
bin	-0.16666666666667	0
bin	-0.13333333333333	0
bin	-0.1	0
bin	-0.066666666666667	0
bin	-0.033333333333333	0
bin	-6.9388939039072e-018	1
bin	0.033333333333333	0
bin	0.066666666666667	0
bin	0.1	0
bin	0.13333333333333	0
bin	0.16666666666667	0
bin	0.2	0
bin	0.23333333333333	0
bin	0.26666666666667	0
bin	0.3	0
bin	0.33333333333333	0
bin	0.36666666666667	0
bin	0.4	0
bin	0.43333333333333	0
bin	0.46666666666667	0
bin	0.5	0
scalar Mobility_Aware_Cross_Layer_Routing_Approach_EAR_P2P_NW.Mobilenode50.wlan[9].radio 	radioState:count 	194
attr interpolationmode  sample-hold
attr title  "radio state (enum), count"
scalar Mobility_Aware_Cross_Layer_Routing_Approach_EAR_P2P_NW.Mobilenode50.wlan[9].radio 	bitrate:min 	2000000
attr interpolationmode  sample-hold
attr title  "tx bitrate, min"
attr unit  bps
scalar Mobility_Aware_Cross_Layer_Routing_Approach_EAR_P2P_NW.Mobilenode50.wlan[9].radio 	bitrate:max 	2000000
attr interpolationmode  sample-hold
attr title  "tx bitrate, max"
attr unit  bps
scalar Mobility_Aware_Cross_Layer_Routing_Approach_EAR_P2P_NW.Mobilenode50.wlan[9].radio 	bitrate:timeavg 	2000000
attr interpolationmode  sample-hold
attr title  "tx bitrate, timeavg"
attr unit  bps
scalar Mobility_Aware_Cross_Layer_Routing_Approach_EAR_P2P_NW.AccessPoint.networkLayer.arp 	initiatedARPResolution:count 	0
attr title  "ARP initiated resolutions, count"
scalar Mobility_Aware_Cross_Layer_Routing_Approach_EAR_P2P_NW.AccessPoint.networkLayer.arp 	sentReply:count 	0
attr title  "ARP replies sent, count"
scalar Mobility_Aware_Cross_Layer_Routing_Approach_EAR_P2P_NW.AccessPoint.networkLayer.arp 	sentReq:count 	0
attr title  "ARP request sent, count"
scalar Mobility_Aware_Cross_Layer_Routing_Approach_EAR_P2P_NW.AccessPoint.networkLayer.arp 	failedARPResolution:count 	0
attr title  "ARP failed resolutions, count"
scalar Mobility_Aware_Cross_Layer_Routing_Approach_EAR_P2P_NW.AccessPoint.networkLayer.arp 	completedARPResolution:count 	0
attr title  "ARP completed resolutions, count"
scalar Mobility_Aware_Cross_Layer_Routing_Approach_EAR_P2P_NW.AccessPoint.lo0.lo 	rcvdPkFromHL:count 	0
attr interpolationmode  none
attr source  packetReceivedFromUpper
attr title  "packets received from higher layer, count"
scalar Mobility_Aware_Cross_Layer_Routing_Approach_EAR_P2P_NW.AccessPoint.lo0.lo 	rcvdPkFromHL:sum(packetBytes) 	0
attr interpolationmode  none
attr source  packetReceivedFromUpper
attr title  "packets received from higher layer, sum(packetBytes)"
scalar Mobility_Aware_Cross_Layer_Routing_Approach_EAR_P2P_NW.AccessPoint.lo0.lo 	passedUpPk:count 	0
attr interpolationmode  none
attr source  packetSentToUpper
attr title  "packets passed to higher layer, count"
scalar Mobility_Aware_Cross_Layer_Routing_Approach_EAR_P2P_NW.AccessPoint.lo0.lo 	passedUpPk:sum(packetBytes) 	0
attr interpolationmode  none
attr source  packetSentToUpper
attr title  "packets passed to higher layer, sum(packetBytes)"
scalar Mobility_Aware_Cross_Layer_Routing_Approach_EAR_P2P_NW.AccessPoint.lo0.lo 	droppedPkBitError:count 	0
attr interpolationmode  none
attr source  dropPkBitError
attr title  "packets dropped/bit error, count"
scalar Mobility_Aware_Cross_Layer_Routing_Approach_EAR_P2P_NW.AccessPoint.lo0.lo 	droppedPkBitError:sum(packetBytes) 	0
attr interpolationmode  none
attr source  dropPkBitError
attr title  "packets dropped/bit error, sum(packetBytes)"
scalar Mobility_Aware_Cross_Layer_Routing_Approach_EAR_P2P_NW.AccessPoint.wlan[0].mgmt 	dropPkByQueue:count 	0
attr interpolationmode  none
attr source  dropPkByQueue
attr title  "packets dropped by queue, count"
scalar Mobility_Aware_Cross_Layer_Routing_Approach_EAR_P2P_NW.AccessPoint.wlan[0].mgmt 	dropPkByQueue:sum(packetBytes) 	0
attr interpolationmode  none
attr source  dropPkByQueue
attr title  "packets dropped by queue, sum(packetBytes)"
scalar Mobility_Aware_Cross_Layer_Routing_Approach_EAR_P2P_NW.AccessPoint.wlan[0].mgmt 	dataQueueLen:max 	0
attr interpolationmode  sample-hold
attr title  "data queue length, max"
scalar Mobility_Aware_Cross_Layer_Routing_Approach_EAR_P2P_NW.AccessPoint.wlan[0].mgmt 	dataQueueLen:timeavg 	0
attr interpolationmode  sample-hold
attr title  "data queue length, timeavg"
scalar Mobility_Aware_Cross_Layer_Routing_Approach_EAR_P2P_NW.AccessPoint.wlan[0].mac 	"number of received packets" 	0
scalar Mobility_Aware_Cross_Layer_Routing_Approach_EAR_P2P_NW.AccessPoint.wlan[0].mac 	"number of collisions" 	30
scalar Mobility_Aware_Cross_Layer_Routing_Approach_EAR_P2P_NW.AccessPoint.wlan[0].mac 	"number of internal collisions" 	0
scalar Mobility_Aware_Cross_Layer_Routing_Approach_EAR_P2P_NW.AccessPoint.wlan[0].mac 	"number of retry for AC 0" 	0
scalar Mobility_Aware_Cross_Layer_Routing_Approach_EAR_P2P_NW.AccessPoint.wlan[0].mac 	"sent and received bits" 	0
scalar Mobility_Aware_Cross_Layer_Routing_Approach_EAR_P2P_NW.AccessPoint.wlan[0].mac 	"sent packet within AC 0" 	0
scalar Mobility_Aware_Cross_Layer_Routing_Approach_EAR_P2P_NW.AccessPoint.wlan[0].mac 	"sent in TXOP " 	0
scalar Mobility_Aware_Cross_Layer_Routing_Approach_EAR_P2P_NW.AccessPoint.wlan[0].mac 	"sentWithoutRetry AC 0" 	0
scalar Mobility_Aware_Cross_Layer_Routing_Approach_EAR_P2P_NW.AccessPoint.wlan[0].mac 	"numGivenUp AC 0" 	0
scalar Mobility_Aware_Cross_Layer_Routing_Approach_EAR_P2P_NW.AccessPoint.wlan[0].mac 	"numDropped AC 0" 	0
scalar Mobility_Aware_Cross_Layer_Routing_Approach_EAR_P2P_NW.AccessPoint.wlan[0].mac 	rcvdPkFromHL:count 	0
attr interpolationmode  none
attr source  packetReceivedFromUpper
attr title  "packets received from higher layer, count"
scalar Mobility_Aware_Cross_Layer_Routing_Approach_EAR_P2P_NW.AccessPoint.wlan[0].mac 	rcvdPkFromHL:sum(packetBytes) 	0
attr interpolationmode  none
attr source  packetReceivedFromUpper
attr title  "packets received from higher layer, sum(packetBytes)"
scalar Mobility_Aware_Cross_Layer_Routing_Approach_EAR_P2P_NW.AccessPoint.wlan[0].mac 	passedUpPk:count 	47
attr interpolationmode  none
attr source  packetSentToUpper
attr title  "packets passed to higher layer, count"
scalar Mobility_Aware_Cross_Layer_Routing_Approach_EAR_P2P_NW.AccessPoint.wlan[0].mac 	passedUpPk:sum(packetBytes) 	3666
attr interpolationmode  none
attr source  packetSentToUpper
attr title  "packets passed to higher layer, sum(packetBytes)"
scalar Mobility_Aware_Cross_Layer_Routing_Approach_EAR_P2P_NW.AccessPoint.wlan[0].mac 	rcvdPkFromLL:count 	77
attr interpolationmode  none
attr source  packetReceivedFromLower
attr title  "packets received from lower layer, count"
scalar Mobility_Aware_Cross_Layer_Routing_Approach_EAR_P2P_NW.AccessPoint.wlan[0].mac 	rcvdPkFromLL:sum(packetBytes) 	6006
attr interpolationmode  none
attr source  packetReceivedFromLower
attr title  "packets received from lower layer, sum(packetBytes)"
scalar Mobility_Aware_Cross_Layer_Routing_Approach_EAR_P2P_NW.AccessPoint.wlan[0].mac 	sentDownPk:count 	0
attr interpolationmode  none
attr source  packetSentToLower
attr title  "packets sent to lower layer, count"
scalar Mobility_Aware_Cross_Layer_Routing_Approach_EAR_P2P_NW.AccessPoint.wlan[0].mac 	sentDownPk:sum(packetBytes) 	0
attr interpolationmode  none
attr source  packetSentToLower
attr title  "packets sent to lower layer, sum(packetBytes)"
scalar Mobility_Aware_Cross_Layer_Routing_Approach_EAR_P2P_NW.AccessPoint.wlan[0].radio 	lossRate:min 	0.32
attr interpolationmode  backward-sample-hold
attr title  "packet loss rate, min"
scalar Mobility_Aware_Cross_Layer_Routing_Approach_EAR_P2P_NW.AccessPoint.wlan[0].radio 	lossRate:max 	0.32
attr interpolationmode  backward-sample-hold
attr title  "packet loss rate, max"
scalar Mobility_Aware_Cross_Layer_Routing_Approach_EAR_P2P_NW.AccessPoint.wlan[0].radio 	lossRate:timeavg 	0.32
attr interpolationmode  backward-sample-hold
attr title  "packet loss rate, timeavg"
statistic Mobility_Aware_Cross_Layer_Routing_Approach_EAR_P2P_NW.AccessPoint.wlan[0].radio 	channelNo:histogram
field count 1
field mean 0
field stddev nan
field sum 0
field sqrsum 0
field min 0
field max 0
attr interpolationmode  sample-hold
attr title  "channel no, histogram"
bin	-INF	0
bin	-0.5	0
bin	-0.46666666666667	0
bin	-0.43333333333333	0
bin	-0.4	0
bin	-0.36666666666667	0
bin	-0.33333333333333	0
bin	-0.3	0
bin	-0.26666666666667	0
bin	-0.23333333333333	0
bin	-0.2	0
bin	-0.16666666666667	0
bin	-0.13333333333333	0
bin	-0.1	0
bin	-0.066666666666667	0
bin	-0.033333333333333	0
bin	-6.9388939039072e-018	1
bin	0.033333333333333	0
bin	0.066666666666667	0
bin	0.1	0
bin	0.13333333333333	0
bin	0.16666666666667	0
bin	0.2	0
bin	0.23333333333333	0
bin	0.26666666666667	0
bin	0.3	0
bin	0.33333333333333	0
bin	0.36666666666667	0
bin	0.4	0
bin	0.43333333333333	0
bin	0.46666666666667	0
bin	0.5	0
scalar Mobility_Aware_Cross_Layer_Routing_Approach_EAR_P2P_NW.AccessPoint.wlan[0].radio 	radioState:count 	223
attr interpolationmode  sample-hold
attr title  "radio state (enum), count"
scalar Mobility_Aware_Cross_Layer_Routing_Approach_EAR_P2P_NW.AccessPoint.wlan[0].radio 	bitrate:min 	2000000
attr interpolationmode  sample-hold
attr title  "tx bitrate, min"
attr unit  bps
scalar Mobility_Aware_Cross_Layer_Routing_Approach_EAR_P2P_NW.AccessPoint.wlan[0].radio 	bitrate:max 	2000000
attr interpolationmode  sample-hold
attr title  "tx bitrate, max"
attr unit  bps
scalar Mobility_Aware_Cross_Layer_Routing_Approach_EAR_P2P_NW.AccessPoint.wlan[0].radio 	bitrate:timeavg 	2000000
attr interpolationmode  sample-hold
attr title  "tx bitrate, timeavg"
attr unit  bps
scalar Mobility_Aware_Cross_Layer_Routing_Approach_EAR_P2P_NW.AccessPoint1.networkLayer.arp 	initiatedARPResolution:count 	0
attr title  "ARP initiated resolutions, count"
scalar Mobility_Aware_Cross_Layer_Routing_Approach_EAR_P2P_NW.AccessPoint1.networkLayer.arp 	sentReply:count 	0
attr title  "ARP replies sent, count"
scalar Mobility_Aware_Cross_Layer_Routing_Approach_EAR_P2P_NW.AccessPoint1.networkLayer.arp 	sentReq:count 	0
attr title  "ARP request sent, count"
scalar Mobility_Aware_Cross_Layer_Routing_Approach_EAR_P2P_NW.AccessPoint1.networkLayer.arp 	failedARPResolution:count 	0
attr title  "ARP failed resolutions, count"
scalar Mobility_Aware_Cross_Layer_Routing_Approach_EAR_P2P_NW.AccessPoint1.networkLayer.arp 	completedARPResolution:count 	0
attr title  "ARP completed resolutions, count"
scalar Mobility_Aware_Cross_Layer_Routing_Approach_EAR_P2P_NW.AccessPoint1.lo0.lo 	rcvdPkFromHL:count 	0
attr interpolationmode  none
attr source  packetReceivedFromUpper
attr title  "packets received from higher layer, count"
scalar Mobility_Aware_Cross_Layer_Routing_Approach_EAR_P2P_NW.AccessPoint1.lo0.lo 	rcvdPkFromHL:sum(packetBytes) 	0
attr interpolationmode  none
attr source  packetReceivedFromUpper
attr title  "packets received from higher layer, sum(packetBytes)"
scalar Mobility_Aware_Cross_Layer_Routing_Approach_EAR_P2P_NW.AccessPoint1.lo0.lo 	passedUpPk:count 	0
attr interpolationmode  none
attr source  packetSentToUpper
attr title  "packets passed to higher layer, count"
scalar Mobility_Aware_Cross_Layer_Routing_Approach_EAR_P2P_NW.AccessPoint1.lo0.lo 	passedUpPk:sum(packetBytes) 	0
attr interpolationmode  none
attr source  packetSentToUpper
attr title  "packets passed to higher layer, sum(packetBytes)"
scalar Mobility_Aware_Cross_Layer_Routing_Approach_EAR_P2P_NW.AccessPoint1.lo0.lo 	droppedPkBitError:count 	0
attr interpolationmode  none
attr source  dropPkBitError
attr title  "packets dropped/bit error, count"
scalar Mobility_Aware_Cross_Layer_Routing_Approach_EAR_P2P_NW.AccessPoint1.lo0.lo 	droppedPkBitError:sum(packetBytes) 	0
attr interpolationmode  none
attr source  dropPkBitError
attr title  "packets dropped/bit error, sum(packetBytes)"
scalar Mobility_Aware_Cross_Layer_Routing_Approach_EAR_P2P_NW.AccessPoint1.wlan[0].mgmt 	dropPkByQueue:count 	0
attr interpolationmode  none
attr source  dropPkByQueue
attr title  "packets dropped by queue, count"
scalar Mobility_Aware_Cross_Layer_Routing_Approach_EAR_P2P_NW.AccessPoint1.wlan[0].mgmt 	dropPkByQueue:sum(packetBytes) 	0
attr interpolationmode  none
attr source  dropPkByQueue
attr title  "packets dropped by queue, sum(packetBytes)"
scalar Mobility_Aware_Cross_Layer_Routing_Approach_EAR_P2P_NW.AccessPoint1.wlan[0].mgmt 	dataQueueLen:max 	0
attr interpolationmode  sample-hold
attr title  "data queue length, max"
scalar Mobility_Aware_Cross_Layer_Routing_Approach_EAR_P2P_NW.AccessPoint1.wlan[0].mgmt 	dataQueueLen:timeavg 	0
attr interpolationmode  sample-hold
attr title  "data queue length, timeavg"
scalar Mobility_Aware_Cross_Layer_Routing_Approach_EAR_P2P_NW.AccessPoint1.wlan[0].mac 	"number of received packets" 	0
scalar Mobility_Aware_Cross_Layer_Routing_Approach_EAR_P2P_NW.AccessPoint1.wlan[0].mac 	"number of collisions" 	62
scalar Mobility_Aware_Cross_Layer_Routing_Approach_EAR_P2P_NW.AccessPoint1.wlan[0].mac 	"number of internal collisions" 	0
scalar Mobility_Aware_Cross_Layer_Routing_Approach_EAR_P2P_NW.AccessPoint1.wlan[0].mac 	"number of retry for AC 0" 	0
scalar Mobility_Aware_Cross_Layer_Routing_Approach_EAR_P2P_NW.AccessPoint1.wlan[0].mac 	"sent and received bits" 	0
scalar Mobility_Aware_Cross_Layer_Routing_Approach_EAR_P2P_NW.AccessPoint1.wlan[0].mac 	"sent packet within AC 0" 	0
scalar Mobility_Aware_Cross_Layer_Routing_Approach_EAR_P2P_NW.AccessPoint1.wlan[0].mac 	"sent in TXOP " 	0
scalar Mobility_Aware_Cross_Layer_Routing_Approach_EAR_P2P_NW.AccessPoint1.wlan[0].mac 	"sentWithoutRetry AC 0" 	0
scalar Mobility_Aware_Cross_Layer_Routing_Approach_EAR_P2P_NW.AccessPoint1.wlan[0].mac 	"numGivenUp AC 0" 	0
scalar Mobility_Aware_Cross_Layer_Routing_Approach_EAR_P2P_NW.AccessPoint1.wlan[0].mac 	"numDropped AC 0" 	0
scalar Mobility_Aware_Cross_Layer_Routing_Approach_EAR_P2P_NW.AccessPoint1.wlan[0].mac 	rcvdPkFromHL:count 	0
attr interpolationmode  none
attr source  packetReceivedFromUpper
attr title  "packets received from higher layer, count"
scalar Mobility_Aware_Cross_Layer_Routing_Approach_EAR_P2P_NW.AccessPoint1.wlan[0].mac 	rcvdPkFromHL:sum(packetBytes) 	0
attr interpolationmode  none
attr source  packetReceivedFromUpper
attr title  "packets received from higher layer, sum(packetBytes)"
scalar Mobility_Aware_Cross_Layer_Routing_Approach_EAR_P2P_NW.AccessPoint1.wlan[0].mac 	passedUpPk:count 	31
attr interpolationmode  none
attr source  packetSentToUpper
attr title  "packets passed to higher layer, count"
scalar Mobility_Aware_Cross_Layer_Routing_Approach_EAR_P2P_NW.AccessPoint1.wlan[0].mac 	passedUpPk:sum(packetBytes) 	2418
attr interpolationmode  none
attr source  packetSentToUpper
attr title  "packets passed to higher layer, sum(packetBytes)"
scalar Mobility_Aware_Cross_Layer_Routing_Approach_EAR_P2P_NW.AccessPoint1.wlan[0].mac 	rcvdPkFromLL:count 	93
attr interpolationmode  none
attr source  packetReceivedFromLower
attr title  "packets received from lower layer, count"
scalar Mobility_Aware_Cross_Layer_Routing_Approach_EAR_P2P_NW.AccessPoint1.wlan[0].mac 	rcvdPkFromLL:sum(packetBytes) 	7254
attr interpolationmode  none
attr source  packetReceivedFromLower
attr title  "packets received from lower layer, sum(packetBytes)"
scalar Mobility_Aware_Cross_Layer_Routing_Approach_EAR_P2P_NW.AccessPoint1.wlan[0].mac 	sentDownPk:count 	0
attr interpolationmode  none
attr source  packetSentToLower
attr title  "packets sent to lower layer, count"
scalar Mobility_Aware_Cross_Layer_Routing_Approach_EAR_P2P_NW.AccessPoint1.wlan[0].mac 	sentDownPk:sum(packetBytes) 	0
attr interpolationmode  none
attr source  packetSentToLower
attr title  "packets sent to lower layer, sum(packetBytes)"
scalar Mobility_Aware_Cross_Layer_Routing_Approach_EAR_P2P_NW.AccessPoint1.wlan[0].radio 	lossRate:min 	0.68
attr interpolationmode  backward-sample-hold
attr title  "packet loss rate, min"
scalar Mobility_Aware_Cross_Layer_Routing_Approach_EAR_P2P_NW.AccessPoint1.wlan[0].radio 	lossRate:max 	0.68
attr interpolationmode  backward-sample-hold
attr title  "packet loss rate, max"
scalar Mobility_Aware_Cross_Layer_Routing_Approach_EAR_P2P_NW.AccessPoint1.wlan[0].radio 	lossRate:timeavg 	0.68
attr interpolationmode  backward-sample-hold
attr title  "packet loss rate, timeavg"
statistic Mobility_Aware_Cross_Layer_Routing_Approach_EAR_P2P_NW.AccessPoint1.wlan[0].radio 	channelNo:histogram
field count 1
field mean 0
field stddev nan
field sum 0
field sqrsum 0
field min 0
field max 0
attr interpolationmode  sample-hold
attr title  "channel no, histogram"
bin	-INF	0
bin	-0.5	0
bin	-0.46666666666667	0
bin	-0.43333333333333	0
bin	-0.4	0
bin	-0.36666666666667	0
bin	-0.33333333333333	0
bin	-0.3	0
bin	-0.26666666666667	0
bin	-0.23333333333333	0
bin	-0.2	0
bin	-0.16666666666667	0
bin	-0.13333333333333	0
bin	-0.1	0
bin	-0.066666666666667	0
bin	-0.033333333333333	0
bin	-6.9388939039072e-018	1
bin	0.033333333333333	0
bin	0.066666666666667	0
bin	0.1	0
bin	0.13333333333333	0
bin	0.16666666666667	0
bin	0.2	0
bin	0.23333333333333	0
bin	0.26666666666667	0
bin	0.3	0
bin	0.33333333333333	0
bin	0.36666666666667	0
bin	0.4	0
bin	0.43333333333333	0
bin	0.46666666666667	0
bin	0.5	0
scalar Mobility_Aware_Cross_Layer_Routing_Approach_EAR_P2P_NW.AccessPoint1.wlan[0].radio 	radioState:count 	203
attr interpolationmode  sample-hold
attr title  "radio state (enum), count"
scalar Mobility_Aware_Cross_Layer_Routing_Approach_EAR_P2P_NW.AccessPoint1.wlan[0].radio 	bitrate:min 	2000000
attr interpolationmode  sample-hold
attr title  "tx bitrate, min"
attr unit  bps
scalar Mobility_Aware_Cross_Layer_Routing_Approach_EAR_P2P_NW.AccessPoint1.wlan[0].radio 	bitrate:max 	2000000
attr interpolationmode  sample-hold
attr title  "tx bitrate, max"
attr unit  bps
scalar Mobility_Aware_Cross_Layer_Routing_Approach_EAR_P2P_NW.AccessPoint1.wlan[0].radio 	bitrate:timeavg 	2000000
attr interpolationmode  sample-hold
attr title  "tx bitrate, timeavg"
attr unit  bps
scalar Mobility_Aware_Cross_Layer_Routing_Approach_EAR_P2P_NW.sha1_HASH 	throughput 	0
scalar Mobility_Aware_Cross_Layer_Routing_Approach_EAR_P2P_NW.sha1_HASH 	packetPerSec 	0
scalar Mobility_Aware_Cross_Layer_Routing_Approach_EAR_P2P_NW.sha1_HASH 	rcvdPk:count 	0
attr interpolationmode  none
attr source  rcvdPk
attr title  "packets received, count"
scalar Mobility_Aware_Cross_Layer_Routing_Approach_EAR_P2P_NW.sha1_HASH 	rcvdPk:sum(packetBytes) 	0
attr interpolationmode  none
attr source  rcvdPk
attr title  "packets received, sum(packetBytes)"
